* Design:	NEURON
* Created:	"Thu Dec 15 2022"
* Vendor:	"Mentor Graphics Corporation"
* Program:	"Calibre xACT 3D"
* Version:	"v2017.4_19.14"
* Corner Name: typical_27
* Nominal Temperature: 25C
* Circuit Temperature: 27C
* 
* Integrated TICER reduction is not enabled.
* SHORT DELAY THRESHOLD: 2e-15
* Fill Mode: NG
* PEX REDUCE CC ABSOLUTE : 1
* PEX REDUCE CC RELATIVE : 0.01
* Delta transform mode : 344834

* .include "NEURON.pex.netlist.pex"

* Start of included file NEURON.pex.netlist.pex

.subckt PM_NEURON%XI4/XI15/NET045 VSS 18 23 46 49 50 11 4 14 3 16 17 1 15 9 10
+ 13 12
c1 1 VSS 0.00274817f $X=0.118 $Y=0.486
c2 3 VSS 0.0105927f $X=0.3485 $Y=0.5535
c3 4 VSS 0.00719697f $X=0.415 $Y=0.405
c4 9 VSS 0.0503496f $X=0.118 $Y=0.3635
c5 10 VSS 0.0382241f $X=0.363 $Y=0.5535
c6 11 VSS 0.00375263f $X=0.4005 $Y=0.405
c7 12 VSS 0.000744739f $X=0.118 $Y=0.423
c8 13 VSS 0.000787969f $X=0.348 $Y=0.423
c9 14 VSS 0.00108212f $X=0.118 $Y=0.474
c10 15 VSS 0.00409939f $X=0.1315 $Y=0.423
c11 16 VSS 0.00128027f $X=0.348 $Y=0.445
c12 17 VSS 0.00194198f $X=0.368 $Y=0.423
r1 50 48 0.0462963 $w=5.4e-08 $l=2.5e-09 $layer=<ENCRYPTED_LAYER_49>
+ $thickness=1e-09 $X=0.4323 $Y=0.405 $X2=0.4295 $Y2=0.405
r2 4 48 0.268519 $w=5.4e-08 $l=1.45e-08 $layer=<ENCRYPTED_LAYER_49>
+ $thickness=1e-09 $X=0.415 $Y=0.405 $X2=0.4295 $Y2=0.405
r3 11 4 0.268519 $w=5.4e-08 $l=1.45e-08 $layer=<ENCRYPTED_LAYER_49>
+ $thickness=1e-09 $X=0.4005 $Y=0.405 $X2=0.415 $Y2=0.405
r4 49 11 0.0462963 $w=5.4e-08 $l=2.5e-09 $layer=<ENCRYPTED_LAYER_49>
+ $thickness=1e-09 $X=0.3976 $Y=0.405 $X2=0.4005 $Y2=0.405
r5 46 45 0.0308642 $w=8.1e-08 $l=2.5e-09 $layer=<ENCRYPTED_LAYER_48>
+ $thickness=1e-09 $X=0.3783 $Y=0.5535 $X2=0.3755 $Y2=0.5535
r6 10 45 0.154321 $w=8.1e-08 $l=1.25e-08 $layer=<ENCRYPTED_LAYER_48>
+ $thickness=1e-09 $X=0.363 $Y=0.5535 $X2=0.3755 $Y2=0.5535
r7 4 40 19.3796 $w=1.8e-08 $l=1.8e-08 $layer=<ENCRYPTED_LAYER_7> $X=0.415
+ $Y=0.405 $X2=0.4115 $Y2=0.423
r8 3 35 19.3796 $w=1.8e-08 $l=1.8e-08 $layer=<ENCRYPTED_LAYER_7> $X=0.3485
+ $Y=0.5535 $X2=0.348 $Y2=0.528
r9 39 40 2.3319 $w=1.8e-08 $l=1e-08 $layer=M1 $thickness=3.6e-08 $X=0.4015
+ $Y=0.423 $X2=0.4115 $Y2=0.423
r10 38 39 3.14806 $w=1.8e-08 $l=1.35e-08 $layer=M1 $thickness=3.6e-08 $X=0.388
+ $Y=0.423 $X2=0.4015 $Y2=0.423
r11 17 38 4.6638 $w=1.8e-08 $l=2e-08 $layer=M1 $thickness=3.6e-08 $X=0.368
+ $Y=0.423 $X2=0.388 $Y2=0.423
r12 34 35 7.34548 $w=1.8e-08 $l=3.15e-08 $layer=M1 $thickness=3.6e-08 $X=0.348
+ $Y=0.4965 $X2=0.348 $Y2=0.528
r13 33 34 7.46207 $w=1.8e-08 $l=3.2e-08 $layer=M1 $thickness=3.6e-08 $X=0.348
+ $Y=0.4645 $X2=0.348 $Y2=0.4965
r14 16 33 4.5472 $w=1.8e-08 $l=1.95e-08 $layer=M1 $thickness=3.6e-08 $X=0.348
+ $Y=0.445 $X2=0.348 $Y2=0.4645
r15 13 32 3.60008 $w=1.8e-08 $l=2.05e-08 $layer=M1 $thickness=3.6e-08 $X=0.348
+ $Y=0.423 $X2=0.3275 $Y2=0.423
r16 13 16 3.94987 $w=1.8e-08 $l=2.2e-08 $layer=M1 $thickness=3.6e-08 $X=0.348
+ $Y=0.423 $X2=0.348 $Y2=0.445
r17 13 17 3.48349 $w=1.8e-08 $l=2e-08 $layer=M1 $thickness=3.6e-08 $X=0.348
+ $Y=0.423 $X2=0.368 $Y2=0.423
r18 31 32 18.422 $w=1.8e-08 $l=7.9e-08 $layer=M1 $thickness=3.6e-08 $X=0.2485
+ $Y=0.423 $X2=0.3275 $Y2=0.423
r19 30 31 17.839 $w=1.8e-08 $l=7.65e-08 $layer=M1 $thickness=3.6e-08 $X=0.172
+ $Y=0.423 $X2=0.2485 $Y2=0.423
r20 29 30 5.24677 $w=1.8e-08 $l=2.25e-08 $layer=M1 $thickness=3.6e-08 $X=0.1495
+ $Y=0.423 $X2=0.172 $Y2=0.423
r21 15 29 4.19742 $w=1.8e-08 $l=1.8e-08 $layer=M1 $thickness=3.6e-08 $X=0.1315
+ $Y=0.423 $X2=0.1495 $Y2=0.423
r22 12 28 4.9968 $w=1.8e-08 $l=2.85e-08 $layer=M1 $thickness=3.6e-08 $X=0.118
+ $Y=0.423 $X2=0.118 $Y2=0.4515
r23 12 15 1.49895 $w=1.8e-08 $l=1.35e-08 $layer=M1 $thickness=3.6e-08 $X=0.118
+ $Y=0.423 $X2=0.1315 $Y2=0.423
r24 14 26 2.79828 $w=1.8e-08 $l=1.2e-08 $layer=M1 $thickness=3.6e-08 $X=0.118
+ $Y=0.474 $X2=0.118 $Y2=0.486
r25 14 28 5.24677 $w=1.8e-08 $l=2.25e-08 $layer=M1 $thickness=3.6e-08 $X=0.118
+ $Y=0.474 $X2=0.118 $Y2=0.4515
r26 1 21 10.4265 $w=2.1e-08 $layer=LIG $thickness=5.2e-08 $X=0.118 $Y=0.486
+ $X2=0.118 $Y2=0.486
r27 1 26 19.3796 $w=1.8e-08 $l=1.8e-08 $layer=<ENCRYPTED_LAYER_4> $X=0.118
+ $Y=0.486 $X2=0.118 $Y2=0.486
r28 23 22 10.8844 $w=2e-08 $l=3.2e-08 $layer=<ENCRYPTED_LAYER_23>
+ $thickness=5.6e-08 $X=0.118 $Y=0.5535 $X2=0.118 $Y2=0.505
r29 21 22 6.6497 $w=2e-08 $l=1.9e-08 $layer=<ENCRYPTED_LAYER_23>
+ $thickness=5.6e-08 $X=0.118 $Y=0.486 $X2=0.118 $Y2=0.505
r30 20 21 5.79936 $w=2e-08 $l=1.65e-08 $layer=<ENCRYPTED_LAYER_23>
+ $thickness=5.6e-08 $X=0.118 $Y=0.4695 $X2=0.118 $Y2=0.486
r31 19 20 2.7211 $w=2e-08 $l=8e-09 $layer=<ENCRYPTED_LAYER_23>
+ $thickness=5.6e-08 $X=0.118 $Y=0.4615 $X2=0.118 $Y2=0.4695
r32 18 19 14.6259 $w=2e-08 $l=4.3e-08 $layer=<ENCRYPTED_LAYER_23>
+ $thickness=5.6e-08 $X=0.118 $Y=0.4185 $X2=0.118 $Y2=0.4615
r33 18 9 18.7076 $w=2e-08 $l=5.5e-08 $layer=<ENCRYPTED_LAYER_23>
+ $thickness=5.6e-08 $X=0.118 $Y=0.4185 $X2=0.118 $Y2=0.3635
r34 3 10 1e-05 $l=1.45e-08 $X=0.3485 $Y=0.5535 $X2=0.363 $Y2=0.5535
.ends

.subckt PM_NEURON%XI1/XI1/XI3/NET045 VSS 18 24 46 49 50 10 4 3 16 17 15 14 11 1
+ 9 13 12
c1 1 VSS 0.00277134f $X=1.576 $Y=0.486
c2 3 VSS 0.0105819f $X=1.8065 $Y=0.5535
c3 4 VSS 0.00711132f $X=1.873 $Y=0.405
c4 9 VSS 0.0510188f $X=1.576 $Y=0.3635
c5 10 VSS 0.0373872f $X=1.821 $Y=0.5535
c6 11 VSS 0.00367551f $X=1.8585 $Y=0.405
c7 12 VSS 0.000709918f $X=1.576 $Y=0.423
c8 13 VSS 0.000762701f $X=1.806 $Y=0.423
c9 14 VSS 0.00105148f $X=1.576 $Y=0.473
c10 15 VSS 0.00403487f $X=1.5895 $Y=0.423
c11 16 VSS 0.00123976f $X=1.806 $Y=0.445
c12 17 VSS 0.00183994f $X=1.826 $Y=0.423
r1 50 48 0.0462963 $w=5.4e-08 $l=2.5e-09 $layer=<ENCRYPTED_LAYER_49>
+ $thickness=1e-09 $X=1.8903 $Y=0.405 $X2=1.8875 $Y2=0.405
r2 4 48 0.268519 $w=5.4e-08 $l=1.45e-08 $layer=<ENCRYPTED_LAYER_49>
+ $thickness=1e-09 $X=1.873 $Y=0.405 $X2=1.8875 $Y2=0.405
r3 11 4 0.268519 $w=5.4e-08 $l=1.45e-08 $layer=<ENCRYPTED_LAYER_49>
+ $thickness=1e-09 $X=1.8585 $Y=0.405 $X2=1.873 $Y2=0.405
r4 49 11 0.0462963 $w=5.4e-08 $l=2.5e-09 $layer=<ENCRYPTED_LAYER_49>
+ $thickness=1e-09 $X=1.8556 $Y=0.405 $X2=1.8585 $Y2=0.405
r5 46 45 0.0308642 $w=8.1e-08 $l=2.5e-09 $layer=<ENCRYPTED_LAYER_48>
+ $thickness=1e-09 $X=1.8363 $Y=0.5535 $X2=1.8335 $Y2=0.5535
r6 10 45 0.154321 $w=8.1e-08 $l=1.25e-08 $layer=<ENCRYPTED_LAYER_48>
+ $thickness=1e-09 $X=1.821 $Y=0.5535 $X2=1.8335 $Y2=0.5535
r7 4 40 19.3796 $w=1.8e-08 $l=1.8e-08 $layer=<ENCRYPTED_LAYER_7> $X=1.873
+ $Y=0.405 $X2=1.8695 $Y2=0.423
r8 3 35 19.3796 $w=1.8e-08 $l=1.8e-08 $layer=<ENCRYPTED_LAYER_7> $X=1.8065
+ $Y=0.5535 $X2=1.806 $Y2=0.528
r9 39 40 2.3319 $w=1.8e-08 $l=1e-08 $layer=M1 $thickness=3.6e-08 $X=1.8595
+ $Y=0.423 $X2=1.8695 $Y2=0.423
r10 38 39 3.14806 $w=1.8e-08 $l=1.35e-08 $layer=M1 $thickness=3.6e-08 $X=1.846
+ $Y=0.423 $X2=1.8595 $Y2=0.423
r11 17 38 4.6638 $w=1.8e-08 $l=2e-08 $layer=M1 $thickness=3.6e-08 $X=1.826
+ $Y=0.423 $X2=1.846 $Y2=0.423
r12 34 35 7.57867 $w=1.8e-08 $l=3.25e-08 $layer=M1 $thickness=3.6e-08 $X=1.806
+ $Y=0.4955 $X2=1.806 $Y2=0.528
r13 33 34 7.46207 $w=1.8e-08 $l=3.2e-08 $layer=M1 $thickness=3.6e-08 $X=1.806
+ $Y=0.4635 $X2=1.806 $Y2=0.4955
r14 16 33 4.31401 $w=1.8e-08 $l=1.85e-08 $layer=M1 $thickness=3.6e-08 $X=1.806
+ $Y=0.445 $X2=1.806 $Y2=0.4635
r15 13 32 3.60008 $w=1.8e-08 $l=2.05e-08 $layer=M1 $thickness=3.6e-08 $X=1.806
+ $Y=0.423 $X2=1.7855 $Y2=0.423
r16 13 16 3.94987 $w=1.8e-08 $l=2.2e-08 $layer=M1 $thickness=3.6e-08 $X=1.806
+ $Y=0.423 $X2=1.806 $Y2=0.445
r17 13 17 3.48349 $w=1.8e-08 $l=2e-08 $layer=M1 $thickness=3.6e-08 $X=1.806
+ $Y=0.423 $X2=1.826 $Y2=0.423
r18 31 32 18.422 $w=1.8e-08 $l=7.9e-08 $layer=M1 $thickness=3.6e-08 $X=1.7065
+ $Y=0.423 $X2=1.7855 $Y2=0.423
r19 30 31 17.839 $w=1.8e-08 $l=7.65e-08 $layer=M1 $thickness=3.6e-08 $X=1.63
+ $Y=0.423 $X2=1.7065 $Y2=0.423
r20 29 30 5.24677 $w=1.8e-08 $l=2.25e-08 $layer=M1 $thickness=3.6e-08 $X=1.6075
+ $Y=0.423 $X2=1.63 $Y2=0.423
r21 15 29 4.19742 $w=1.8e-08 $l=1.8e-08 $layer=M1 $thickness=3.6e-08 $X=1.5895
+ $Y=0.423 $X2=1.6075 $Y2=0.423
r22 12 28 4.76361 $w=1.8e-08 $l=2.75e-08 $layer=M1 $thickness=3.6e-08 $X=1.576
+ $Y=0.423 $X2=1.576 $Y2=0.4505
r23 12 15 1.49895 $w=1.8e-08 $l=1.35e-08 $layer=M1 $thickness=3.6e-08 $X=1.576
+ $Y=0.423 $X2=1.5895 $Y2=0.423
r24 14 26 3.03147 $w=1.8e-08 $l=1.3e-08 $layer=M1 $thickness=3.6e-08 $X=1.576
+ $Y=0.473 $X2=1.576 $Y2=0.486
r25 14 28 5.24677 $w=1.8e-08 $l=2.25e-08 $layer=M1 $thickness=3.6e-08 $X=1.576
+ $Y=0.473 $X2=1.576 $Y2=0.4505
r26 1 21 10.4265 $w=2.1e-08 $layer=LIG $thickness=5.2e-08 $X=1.576 $Y=0.486
+ $X2=1.576 $Y2=0.486
r27 1 26 19.3796 $w=1.8e-08 $l=1.8e-08 $layer=<ENCRYPTED_LAYER_4> $X=1.576
+ $Y=0.486 $X2=1.576 $Y2=0.486
r28 24 23 14.6259 $w=2e-08 $l=4.3e-08 $layer=<ENCRYPTED_LAYER_23>
+ $thickness=5.6e-08 $X=1.576 $Y=0.5535 $X2=1.576 $Y2=0.5105
r29 22 23 2.7211 $w=2e-08 $l=8e-09 $layer=<ENCRYPTED_LAYER_23>
+ $thickness=5.6e-08 $X=1.576 $Y=0.5025 $X2=1.576 $Y2=0.5105
r30 21 22 5.79936 $w=2e-08 $l=1.65e-08 $layer=<ENCRYPTED_LAYER_23>
+ $thickness=5.6e-08 $X=1.576 $Y=0.486 $X2=1.576 $Y2=0.5025
r31 20 21 5.79936 $w=2e-08 $l=1.65e-08 $layer=<ENCRYPTED_LAYER_23>
+ $thickness=5.6e-08 $X=1.576 $Y=0.4695 $X2=1.576 $Y2=0.486
r32 19 20 2.7211 $w=2e-08 $l=8e-09 $layer=<ENCRYPTED_LAYER_23>
+ $thickness=5.6e-08 $X=1.576 $Y=0.4615 $X2=1.576 $Y2=0.4695
r33 18 19 14.6259 $w=2e-08 $l=4.3e-08 $layer=<ENCRYPTED_LAYER_23>
+ $thickness=5.6e-08 $X=1.576 $Y=0.4185 $X2=1.576 $Y2=0.4615
r34 18 9 18.7076 $w=2e-08 $l=5.5e-08 $layer=<ENCRYPTED_LAYER_23>
+ $thickness=5.6e-08 $X=1.576 $Y=0.4185 $X2=1.576 $Y2=0.3635
r35 3 10 1e-05 $l=1.45e-08 $X=1.8065 $Y=0.5535 $X2=1.821 $Y2=0.5535
.ends

.subckt PM_NEURON%noxref_96 VSS 12 13 19 7 2 9 1 8
c1 1 VSS 0.00719122f $X=1.009 $Y=1.1745
c2 2 VSS 0.00792171f $X=1.117 $Y=1.1745
c3 7 VSS 0.0034147f $X=0.9945 $Y=1.1745
c4 8 VSS 0.0369636f $X=1.1025 $Y=1.1745
c5 9 VSS 0.0122996f $X=1.009 $Y=1.206
r1 8 2 0.154321 $w=8.1e-08 $l=1.25e-08 $layer=<ENCRYPTED_LAYER_48>
+ $thickness=1e-09 $X=1.1025 $Y=1.1745 $X2=1.117 $Y2=1.1745
r2 19 8 0.0308642 $w=8.1e-08 $l=2.5e-09 $layer=<ENCRYPTED_LAYER_48>
+ $thickness=1e-09 $X=1.0996 $Y=1.1745 $X2=1.1025 $Y2=1.1745
r3 2 16 19.3796 $w=1.8e-08 $l=1.8e-08 $layer=<ENCRYPTED_LAYER_7> $X=1.117
+ $Y=1.1745 $X2=1.117 $Y2=1.206
r4 15 16 11.5429 $w=1.8e-08 $l=4.95e-08 $layer=M1 $thickness=3.6e-08 $X=1.0675
+ $Y=1.206 $X2=1.117 $Y2=1.206
r5 14 15 10.4935 $w=1.8e-08 $l=4.5e-08 $layer=M1 $thickness=3.6e-08 $X=1.0225
+ $Y=1.206 $X2=1.0675 $Y2=1.206
r6 9 14 3.14806 $w=1.8e-08 $l=1.35e-08 $layer=M1 $thickness=3.6e-08 $X=1.009
+ $Y=1.206 $X2=1.0225 $Y2=1.206
r7 1 9 19.3796 $w=1.8e-08 $l=1.8e-08 $layer=<ENCRYPTED_LAYER_7> $X=1.009
+ $Y=1.1745 $X2=1.009 $Y2=1.206
r8 13 11 0.0308642 $w=8.1e-08 $l=2.5e-09 $layer=<ENCRYPTED_LAYER_48>
+ $thickness=1e-09 $X=1.0263 $Y=1.1745 $X2=1.0235 $Y2=1.1745
r9 1 11 0.179012 $w=8.1e-08 $l=1.45e-08 $layer=<ENCRYPTED_LAYER_48>
+ $thickness=1e-09 $X=1.009 $Y=1.1745 $X2=1.0235 $Y2=1.1745
r10 7 1 0.179012 $w=8.1e-08 $l=1.45e-08 $layer=<ENCRYPTED_LAYER_48>
+ $thickness=1e-09 $X=0.9945 $Y=1.1745 $X2=1.009 $Y2=1.1745
r11 12 7 0.0308642 $w=8.1e-08 $l=2.5e-09 $layer=<ENCRYPTED_LAYER_48>
+ $thickness=1e-09 $X=0.9916 $Y=1.1745 $X2=0.9945 $Y2=1.1745
.ends

.subckt PM_NEURON%Z<0> VSS 21 16 28 7 8
c1 7 VSS 0.0609437f $X=1.065 $Y=1.377
c2 8 VSS 0.0534533f $X=1.065 $Y=1.539
c3 9 VSS 0.0036299f $X=1.0495 $Y=1.378
c4 10 VSS 0.000172278f $X=1.036 $Y=1.463
c5 11 VSS 0.00431875f $X=1.036 $Y=1.557
c6 12 VSS 0.00367953f $X=0.9602 $Y=1.468
c7 13 VSS 0.00214732f $X=1.036 $Y=1.418
c8 14 VSS 0.00229771f $X=1.036 $Y=1.5065
r1 28 27 0.0231482 $w=1.08e-07 $l=2.5e-09 $layer=<ENCRYPTED_LAYER_49>
+ $thickness=1e-09 $X=1.0803 $Y=1.539 $X2=1.0775 $Y2=1.539
r2 8 27 0.115741 $w=1.08e-07 $l=1.25e-08 $layer=<ENCRYPTED_LAYER_49>
+ $thickness=1e-09 $X=1.065 $Y=1.539 $X2=1.0775 $Y2=1.539
r3 8 25 19.3796 $w=1.8e-08 $l=1.8e-08 $layer=<ENCRYPTED_LAYER_7> $X=1.065
+ $Y=1.539 $X2=1.0635 $Y2=1.557
r4 24 25 3.14806 $w=1.8e-08 $l=1.35e-08 $layer=M1 $thickness=3.6e-08 $X=1.05
+ $Y=1.557 $X2=1.0635 $Y2=1.557
r5 11 23 2.31754 $w=1.8e-08 $l=1.5e-08 $layer=M1 $thickness=3.6e-08 $X=1.036
+ $Y=1.557 $X2=1.036 $Y2=1.542
r6 11 24 2.08435 $w=1.8e-08 $l=1.4e-08 $layer=M1 $thickness=3.6e-08 $X=1.036
+ $Y=1.557 $X2=1.05 $Y2=1.557
r7 14 20 7.38932 $w=1.8e-08 $l=3.45e-08 $layer=M1 $thickness=3.6e-08 $X=1.036
+ $Y=1.5065 $X2=1.036 $Y2=1.472
r8 14 23 8.27824 $w=1.8e-08 $l=3.55e-08 $layer=M1 $thickness=3.6e-08 $X=1.036
+ $Y=1.5065 $X2=1.036 $Y2=1.542
r9 21 22 7.17059 $w=1.8e-08 $l=3.07e-08 $layer=M1 $thickness=3.6e-08 $X=0.966
+ $Y=1.469 $X2=0.9967 $Y2=1.468
r10 21 12 1.34084 $w=1.8e-08 $l=5.8e-09 $layer=M1 $thickness=3.6e-08 $X=0.966
+ $Y=1.469 $X2=0.9602 $Y2=1.468
r11 10 19 1.57413 $w=1.8e-08 $l=9e-09 $layer=M1 $thickness=3.6e-08 $X=1.036
+ $Y=1.463 $X2=1.036 $Y2=1.454
r12 10 20 0.9184 $w=1.8e-08 $l=9e-09 $layer=M1 $thickness=3.6e-08 $X=1.036
+ $Y=1.463 $X2=1.036 $Y2=1.472
r13 10 22 7.46217 $w=1.8e-08 $l=3.96168e-08 $layer=M1 $thickness=3.6e-08
+ $X=1.036 $Y=1.463 $X2=0.9967 $Y2=1.468
r14 13 18 8.14728 $w=1.8e-08 $l=4e-08 $layer=M1 $thickness=3.6e-08 $X=1.036
+ $Y=1.418 $X2=1.036 $Y2=1.378
r15 13 19 8.39483 $w=1.8e-08 $l=3.6e-08 $layer=M1 $thickness=3.6e-08 $X=1.036
+ $Y=1.418 $X2=1.036 $Y2=1.454
r16 9 17 3.14806 $w=1.8e-08 $l=1.35e-08 $layer=M1 $thickness=3.6e-08 $X=1.0495
+ $Y=1.378 $X2=1.063 $Y2=1.378
r17 9 18 1.96775 $w=1.8e-08 $l=1.35e-08 $layer=M1 $thickness=3.6e-08 $X=1.0495
+ $Y=1.378 $X2=1.036 $Y2=1.378
r18 7 17 19.3796 $w=1.8e-08 $l=1.8e-08 $layer=<ENCRYPTED_LAYER_7> $X=1.065
+ $Y=1.377 $X2=1.063 $Y2=1.378
r19 16 15 0.0231482 $w=1.08e-07 $l=2.5e-09 $layer=<ENCRYPTED_LAYER_48>
+ $thickness=1e-09 $X=1.0803 $Y=1.377 $X2=1.0775 $Y2=1.377
r20 7 15 0.115741 $w=1.08e-07 $l=1.25e-08 $layer=<ENCRYPTED_LAYER_48>
+ $thickness=1e-09 $X=1.065 $Y=1.377 $X2=1.0775 $Y2=1.377
.ends

.subckt PM_NEURON%XI1/XI0/XI2/XOR VSS 27 31 42 46 59 68 72 12 23 22 16 3 15 4
+ 20 18 1 5 25 26 17 24 14 19 13 21
c1 1 VSS 0.00812657f $X=1.36 $Y=1.107
c2 3 VSS 0.00799578f $X=0.955 $Y=1.0395
c3 4 VSS 0.00718128f $X=0.955 $Y=1.1745
c4 5 VSS 0.00523927f $X=1.117 $Y=1.026
c5 12 VSS 0.0845365f $X=1.36 $Y=0.9845
c6 13 VSS 0.0882074f $X=1.414 $Y=1.107
c7 14 VSS 0.0238679f $X=0.957 $Y=1.1745
c8 15 VSS 0.0393435f $X=0.957 $Y=1.0395
c9 16 VSS 0.0383304f $X=1.1025 $Y=1.0395
c10 17 VSS 0.0021754f $X=0.928 $Y=1.008
c11 18 VSS 0.00599083f $X=0.928 $Y=1.206
c12 19 VSS 0.00387258f $X=1.333 $Y=1.008
c13 20 VSS 0.00111741f $X=1.333 $Y=1.044
c14 21 VSS 0.000904079f $X=1.387 $Y=1.044
c15 22 VSS 0.00380846f $X=0.928 $Y=1.026
c16 23 VSS 0.0204209f $X=1.3235 $Y=1.008
c17 24 VSS 0.00101836f $X=1.333 $Y=1.026
c18 25 VSS 0.00139802f $X=1.3755 $Y=1.044
c19 26 VSS 0.0031085f $X=1.387 $Y=1.0885
r1 72 71 0.0308642 $w=8.1e-08 $l=2.5e-09 $layer=<ENCRYPTED_LAYER_48>
+ $thickness=1e-09 $X=0.9723 $Y=1.1745 $X2=0.9695 $Y2=1.1745
r2 14 71 0.154321 $w=8.1e-08 $l=1.25e-08 $layer=<ENCRYPTED_LAYER_48>
+ $thickness=1e-09 $X=0.957 $Y=1.1745 $X2=0.9695 $Y2=1.1745
r3 4 70 19.3796 $w=1.8e-08 $l=1.8e-08 $layer=<ENCRYPTED_LAYER_7> $X=0.955
+ $Y=1.1745 $X2=0.955 $Y2=1.206
r4 69 70 3.14806 $w=1.8e-08 $l=1.35e-08 $layer=M1 $thickness=3.6e-08 $X=0.9415
+ $Y=1.206 $X2=0.955 $Y2=1.206
r5 18 66 3.71668 $w=1.8e-08 $l=2.1e-08 $layer=M1 $thickness=3.6e-08 $X=0.928
+ $Y=1.206 $X2=0.928 $Y2=1.185
r6 18 69 1.96775 $w=1.8e-08 $l=1.35e-08 $layer=M1 $thickness=3.6e-08 $X=0.928
+ $Y=1.206 $X2=0.9415 $Y2=1.206
r7 68 67 0.0308642 $w=8.1e-08 $l=2.5e-09 $layer=<ENCRYPTED_LAYER_49>
+ $thickness=1e-09 $X=0.9723 $Y=1.0395 $X2=0.9695 $Y2=1.0395
r8 15 67 0.154321 $w=8.1e-08 $l=1.25e-08 $layer=<ENCRYPTED_LAYER_49>
+ $thickness=1e-09 $X=0.957 $Y=1.0395 $X2=0.9695 $Y2=1.0395
r9 65 66 4.19742 $w=1.8e-08 $l=1.8e-08 $layer=M1 $thickness=3.6e-08 $X=0.928
+ $Y=1.167 $X2=0.928 $Y2=1.185
r10 64 65 3.49785 $w=1.8e-08 $l=1.5e-08 $layer=M1 $thickness=3.6e-08 $X=0.928
+ $Y=1.152 $X2=0.928 $Y2=1.167
r11 63 64 4.6638 $w=1.8e-08 $l=2e-08 $layer=M1 $thickness=3.6e-08 $X=0.928
+ $Y=1.132 $X2=0.928 $Y2=1.152
r12 62 63 3.14806 $w=1.8e-08 $l=1.35e-08 $layer=M1 $thickness=3.6e-08 $X=0.928
+ $Y=1.1185 $X2=0.928 $Y2=1.132
r13 61 62 2.68168 $w=1.8e-08 $l=1.15e-08 $layer=M1 $thickness=3.6e-08 $X=0.928
+ $Y=1.107 $X2=0.928 $Y2=1.1185
r14 60 61 9.44419 $w=1.8e-08 $l=4.05e-08 $layer=M1 $thickness=3.6e-08 $X=0.928
+ $Y=1.0665 $X2=0.928 $Y2=1.107
r15 22 60 9.44419 $w=1.8e-08 $l=4.05e-08 $layer=M1 $thickness=3.6e-08 $X=0.928
+ $Y=1.026 $X2=0.928 $Y2=1.0665
r16 16 5 0.154321 $w=8.1e-08 $l=1.25e-08 $layer=<ENCRYPTED_LAYER_49>
+ $thickness=1e-09 $X=1.1025 $Y=1.0395 $X2=1.117 $Y2=1.026
r17 59 16 0.0308642 $w=8.1e-08 $l=2.5e-09 $layer=<ENCRYPTED_LAYER_49>
+ $thickness=1e-09 $X=1.0996 $Y=1.0395 $X2=1.1025 $Y2=1.0395
r18 3 55 19.3796 $w=1.8e-08 $l=1.8e-08 $layer=<ENCRYPTED_LAYER_7> $X=0.955
+ $Y=1.0395 $X2=0.955 $Y2=1.008
r19 17 54 1.49895 $w=1.8e-08 $l=1.35e-08 $layer=M1 $thickness=3.6e-08 $X=0.928
+ $Y=1.008 $X2=0.9415 $Y2=1.008
r20 17 22 2.5483 $w=1.8e-08 $l=1.8e-08 $layer=M1 $thickness=3.6e-08 $X=0.928
+ $Y=1.008 $X2=0.928 $Y2=1.026
r21 5 51 19.3796 $w=1.8e-08 $l=1.8e-08 $layer=<ENCRYPTED_LAYER_7> $X=1.117
+ $Y=1.026 $X2=1.117 $Y2=1.008
r22 54 55 3.14806 $w=1.8e-08 $l=1.35e-08 $layer=M1 $thickness=3.6e-08 $X=0.9415
+ $Y=1.008 $X2=0.955 $Y2=1.008
r23 53 55 3.14806 $w=1.8e-08 $l=1.35e-08 $layer=M1 $thickness=3.6e-08 $X=0.9685
+ $Y=1.008 $X2=0.955 $Y2=1.008
r24 51 52 21.5701 $w=1.8e-08 $l=9.25e-08 $layer=M1 $thickness=3.6e-08 $X=1.117
+ $Y=1.008 $X2=1.2095 $Y2=1.008
r25 50 51 17.839 $w=1.8e-08 $l=7.65e-08 $layer=M1 $thickness=3.6e-08 $X=1.0405
+ $Y=1.008 $X2=1.117 $Y2=1.008
r26 50 53 16.7897 $w=1.8e-08 $l=7.2e-08 $layer=M1 $thickness=3.6e-08 $X=1.0405
+ $Y=1.008 $X2=0.9685 $Y2=1.008
r27 49 52 22.9692 $w=1.8e-08 $l=9.85e-08 $layer=M1 $thickness=3.6e-08 $X=1.308
+ $Y=1.008 $X2=1.2095 $Y2=1.008
r28 23 49 3.61444 $w=1.8e-08 $l=1.55e-08 $layer=M1 $thickness=3.6e-08 $X=1.3235
+ $Y=1.008 $X2=1.308 $Y2=1.008
r29 19 24 2.5483 $w=1.8e-08 $l=1.8e-08 $layer=M1 $thickness=3.6e-08 $X=1.333
+ $Y=1.008 $X2=1.333 $Y2=1.026
r30 19 23 0.56619 $w=1.8e-08 $l=9.5e-09 $layer=M1 $thickness=3.6e-08 $X=1.333
+ $Y=1.008 $X2=1.3235 $Y2=1.008
r31 20 48 4.06404 $w=1.8e-08 $l=2.45e-08 $layer=M1 $thickness=3.6e-08 $X=1.333
+ $Y=1.044 $X2=1.3575 $Y2=1.044
r32 20 24 2.5483 $w=1.8e-08 $l=1.8e-08 $layer=M1 $thickness=3.6e-08 $X=1.333
+ $Y=1.044 $X2=1.333 $Y2=1.026
r33 25 48 4.19742 $w=1.8e-08 $l=1.8e-08 $layer=M1 $thickness=3.6e-08 $X=1.3755
+ $Y=1.044 $X2=1.3575 $Y2=1.044
r34 21 39 3.48106 $w=1.8e-08 $l=2.2e-08 $layer=M1 $thickness=3.6e-08 $X=1.387
+ $Y=1.044 $X2=1.387 $Y2=1.066
r35 21 25 1.03257 $w=1.8e-08 $l=1.15e-08 $layer=M1 $thickness=3.6e-08 $X=1.387
+ $Y=1.044 $X2=1.3755 $Y2=1.044
r36 46 45 14.6259 $w=2e-08 $l=4.3e-08 $layer=<ENCRYPTED_LAYER_23>
+ $thickness=5.6e-08 $X=1.414 $Y=1.1745 $X2=1.414 $Y2=1.1315
r37 44 45 2.7211 $w=2e-08 $l=8e-09 $layer=<ENCRYPTED_LAYER_23>
+ $thickness=5.6e-08 $X=1.414 $Y=1.1235 $X2=1.414 $Y2=1.1315
r38 42 43 14.6259 $w=2e-08 $l=4.3e-08 $layer=<ENCRYPTED_LAYER_23>
+ $thickness=5.6e-08 $X=1.414 $Y=1.0395 $X2=1.414 $Y2=1.0825
r39 40 43 2.7211 $w=2e-08 $l=8e-09 $layer=<ENCRYPTED_LAYER_23>
+ $thickness=5.6e-08 $X=1.414 $Y=1.0905 $X2=1.414 $Y2=1.0825
r40 13 35 6.54019 $w=2.09524e-08 $layer=<ENCRYPTED_LAYER_23>
+ $thickness=5.21905e-08 $X=1.414 $Y=1.107 $X2=1.414 $Y2=1.107
r41 13 40 5.79936 $w=2e-08 $l=1.65e-08 $layer=<ENCRYPTED_LAYER_23>
+ $thickness=5.6e-08 $X=1.414 $Y=1.107 $X2=1.414 $Y2=1.0905
r42 13 44 5.79936 $w=2e-08 $l=1.65e-08 $layer=<ENCRYPTED_LAYER_23>
+ $thickness=5.6e-08 $X=1.414 $Y=1.107 $X2=1.414 $Y2=1.1235
r43 26 37 4.31401 $w=1.8e-08 $l=1.85e-08 $layer=M1 $thickness=3.6e-08 $X=1.387
+ $Y=1.0885 $X2=1.387 $Y2=1.107
r44 26 39 5.24677 $w=1.8e-08 $l=2.25e-08 $layer=M1 $thickness=3.6e-08 $X=1.387
+ $Y=1.0885 $X2=1.387 $Y2=1.066
r45 34 35 12.6539 $w=2.2e-08 $l=2.7e-08 $layer=LIG $thickness=4.8e-08 $X=1.387
+ $Y=1.107 $X2=1.414 $Y2=1.107
r46 34 37 19.3796 $w=1.8e-08 $l=1.8e-08 $layer=<ENCRYPTED_LAYER_4> $X=1.387
+ $Y=1.107 $X2=1.387 $Y2=1.107
r47 1 29 6.54019 $w=2.09524e-08 $layer=<ENCRYPTED_LAYER_23>
+ $thickness=5.21905e-08 $X=1.36 $Y=1.107 $X2=1.36 $Y2=1.107
r48 1 34 12.6539 $w=2.2e-08 $l=2.7e-08 $layer=LIG $thickness=4.8e-08 $X=1.36
+ $Y=1.107 $X2=1.387 $Y2=1.107
r49 31 30 16.4967 $w=2e-08 $l=4.85e-08 $layer=<ENCRYPTED_LAYER_23>
+ $thickness=5.6e-08 $X=1.36 $Y=1.1745 $X2=1.36 $Y2=1.126
r50 29 30 6.6497 $w=2e-08 $l=1.9e-08 $layer=<ENCRYPTED_LAYER_23>
+ $thickness=5.6e-08 $X=1.36 $Y=1.107 $X2=1.36 $Y2=1.126
r51 28 29 6.6497 $w=2e-08 $l=1.9e-08 $layer=<ENCRYPTED_LAYER_23>
+ $thickness=5.6e-08 $X=1.36 $Y=1.088 $X2=1.36 $Y2=1.107
r52 27 28 16.4967 $w=2e-08 $l=4.85e-08 $layer=<ENCRYPTED_LAYER_23>
+ $thickness=5.6e-08 $X=1.36 $Y=1.0395 $X2=1.36 $Y2=1.088
r53 27 12 18.7076 $w=2e-08 $l=5.5e-08 $layer=<ENCRYPTED_LAYER_23>
+ $thickness=5.6e-08 $X=1.36 $Y=1.0395 $X2=1.36 $Y2=0.9845
r54 4 14 1e-05 $l=2e-09 $X=0.955 $Y=1.1745 $X2=0.957 $Y2=1.1745
r55 3 15 1e-05 $l=2e-09 $X=0.955 $Y=1.0395 $X2=0.957 $Y2=1.0395
.ends

.subckt PM_NEURON%XI1/XI0/XI3/NET045 VSS 18 24 46 49 50 10 4 3 16 17 15 14 11 1
+ 12 9 13
c1 1 VSS 0.00280333f $X=1.576 $Y=1.107
c2 3 VSS 0.0107432f $X=1.8065 $Y=1.1745
c3 4 VSS 0.00707398f $X=1.873 $Y=1.026
c4 9 VSS 0.0502983f $X=1.576 $Y=0.9845
c5 10 VSS 0.0380276f $X=1.821 $Y=1.1745
c6 11 VSS 0.00370786f $X=1.8585 $Y=1.026
c7 12 VSS 0.000642909f $X=1.576 $Y=1.044
c8 13 VSS 0.000731578f $X=1.806 $Y=1.044
c9 14 VSS 0.00106043f $X=1.576 $Y=1.094
c10 15 VSS 0.00365955f $X=1.5895 $Y=1.044
c11 16 VSS 0.00125759f $X=1.806 $Y=1.066
c12 17 VSS 0.00168997f $X=1.826 $Y=1.044
r1 50 48 0.0462963 $w=5.4e-08 $l=2.5e-09 $layer=<ENCRYPTED_LAYER_49>
+ $thickness=1e-09 $X=1.8903 $Y=1.026 $X2=1.8875 $Y2=1.026
r2 4 48 0.268519 $w=5.4e-08 $l=1.45e-08 $layer=<ENCRYPTED_LAYER_49>
+ $thickness=1e-09 $X=1.873 $Y=1.026 $X2=1.8875 $Y2=1.026
r3 11 4 0.268519 $w=5.4e-08 $l=1.45e-08 $layer=<ENCRYPTED_LAYER_49>
+ $thickness=1e-09 $X=1.8585 $Y=1.026 $X2=1.873 $Y2=1.026
r4 49 11 0.0462963 $w=5.4e-08 $l=2.5e-09 $layer=<ENCRYPTED_LAYER_49>
+ $thickness=1e-09 $X=1.8556 $Y=1.026 $X2=1.8585 $Y2=1.026
r5 46 45 0.0308642 $w=8.1e-08 $l=2.5e-09 $layer=<ENCRYPTED_LAYER_48>
+ $thickness=1e-09 $X=1.8363 $Y=1.1745 $X2=1.8335 $Y2=1.1745
r6 10 45 0.154321 $w=8.1e-08 $l=1.25e-08 $layer=<ENCRYPTED_LAYER_48>
+ $thickness=1e-09 $X=1.821 $Y=1.1745 $X2=1.8335 $Y2=1.1745
r7 4 40 19.3796 $w=1.8e-08 $l=1.8e-08 $layer=<ENCRYPTED_LAYER_7> $X=1.873
+ $Y=1.026 $X2=1.8695 $Y2=1.044
r8 3 35 19.3796 $w=1.8e-08 $l=1.8e-08 $layer=<ENCRYPTED_LAYER_7> $X=1.8065
+ $Y=1.1745 $X2=1.806 $Y2=1.149
r9 39 40 2.3319 $w=1.8e-08 $l=1e-08 $layer=M1 $thickness=3.6e-08 $X=1.8595
+ $Y=1.044 $X2=1.8695 $Y2=1.044
r10 38 39 3.14806 $w=1.8e-08 $l=1.35e-08 $layer=M1 $thickness=3.6e-08 $X=1.846
+ $Y=1.044 $X2=1.8595 $Y2=1.044
r11 17 38 4.6638 $w=1.8e-08 $l=2e-08 $layer=M1 $thickness=3.6e-08 $X=1.826
+ $Y=1.044 $X2=1.846 $Y2=1.044
r12 34 35 7.57867 $w=1.8e-08 $l=3.25e-08 $layer=M1 $thickness=3.6e-08 $X=1.806
+ $Y=1.1165 $X2=1.806 $Y2=1.149
r13 33 34 7.46207 $w=1.8e-08 $l=3.2e-08 $layer=M1 $thickness=3.6e-08 $X=1.806
+ $Y=1.0845 $X2=1.806 $Y2=1.1165
r14 16 33 4.31401 $w=1.8e-08 $l=1.85e-08 $layer=M1 $thickness=3.6e-08 $X=1.806
+ $Y=1.066 $X2=1.806 $Y2=1.0845
r15 13 32 3.60008 $w=1.8e-08 $l=2.05e-08 $layer=M1 $thickness=3.6e-08 $X=1.806
+ $Y=1.044 $X2=1.7855 $Y2=1.044
r16 13 16 3.94987 $w=1.8e-08 $l=2.2e-08 $layer=M1 $thickness=3.6e-08 $X=1.806
+ $Y=1.044 $X2=1.806 $Y2=1.066
r17 13 17 3.48349 $w=1.8e-08 $l=2e-08 $layer=M1 $thickness=3.6e-08 $X=1.806
+ $Y=1.044 $X2=1.826 $Y2=1.044
r18 31 32 18.422 $w=1.8e-08 $l=7.9e-08 $layer=M1 $thickness=3.6e-08 $X=1.7065
+ $Y=1.044 $X2=1.7855 $Y2=1.044
r19 30 31 17.839 $w=1.8e-08 $l=7.65e-08 $layer=M1 $thickness=3.6e-08 $X=1.63
+ $Y=1.044 $X2=1.7065 $Y2=1.044
r20 29 30 5.24677 $w=1.8e-08 $l=2.25e-08 $layer=M1 $thickness=3.6e-08 $X=1.6075
+ $Y=1.044 $X2=1.63 $Y2=1.044
r21 15 29 4.19742 $w=1.8e-08 $l=1.8e-08 $layer=M1 $thickness=3.6e-08 $X=1.5895
+ $Y=1.044 $X2=1.6075 $Y2=1.044
r22 12 28 4.76361 $w=1.8e-08 $l=2.75e-08 $layer=M1 $thickness=3.6e-08 $X=1.576
+ $Y=1.044 $X2=1.576 $Y2=1.0715
r23 12 15 1.49895 $w=1.8e-08 $l=1.35e-08 $layer=M1 $thickness=3.6e-08 $X=1.576
+ $Y=1.044 $X2=1.5895 $Y2=1.044
r24 14 26 3.03147 $w=1.8e-08 $l=1.3e-08 $layer=M1 $thickness=3.6e-08 $X=1.576
+ $Y=1.094 $X2=1.576 $Y2=1.107
r25 14 28 5.24677 $w=1.8e-08 $l=2.25e-08 $layer=M1 $thickness=3.6e-08 $X=1.576
+ $Y=1.094 $X2=1.576 $Y2=1.0715
r26 1 21 10.4265 $w=2.1e-08 $layer=LIG $thickness=5.2e-08 $X=1.576 $Y=1.107
+ $X2=1.576 $Y2=1.107
r27 1 26 19.3796 $w=1.8e-08 $l=1.8e-08 $layer=<ENCRYPTED_LAYER_4> $X=1.576
+ $Y=1.107 $X2=1.576 $Y2=1.107
r28 24 23 14.6259 $w=2e-08 $l=4.3e-08 $layer=<ENCRYPTED_LAYER_23>
+ $thickness=5.6e-08 $X=1.576 $Y=1.1745 $X2=1.576 $Y2=1.1315
r29 22 23 2.7211 $w=2e-08 $l=8e-09 $layer=<ENCRYPTED_LAYER_23>
+ $thickness=5.6e-08 $X=1.576 $Y=1.1235 $X2=1.576 $Y2=1.1315
r30 21 22 5.79936 $w=2e-08 $l=1.65e-08 $layer=<ENCRYPTED_LAYER_23>
+ $thickness=5.6e-08 $X=1.576 $Y=1.107 $X2=1.576 $Y2=1.1235
r31 20 21 5.79936 $w=2e-08 $l=1.65e-08 $layer=<ENCRYPTED_LAYER_23>
+ $thickness=5.6e-08 $X=1.576 $Y=1.0905 $X2=1.576 $Y2=1.107
r32 19 20 2.7211 $w=2e-08 $l=8e-09 $layer=<ENCRYPTED_LAYER_23>
+ $thickness=5.6e-08 $X=1.576 $Y=1.0825 $X2=1.576 $Y2=1.0905
r33 18 19 14.6259 $w=2e-08 $l=4.3e-08 $layer=<ENCRYPTED_LAYER_23>
+ $thickness=5.6e-08 $X=1.576 $Y=1.0395 $X2=1.576 $Y2=1.0825
r34 18 9 18.7076 $w=2e-08 $l=5.5e-08 $layer=<ENCRYPTED_LAYER_23>
+ $thickness=5.6e-08 $X=1.576 $Y=1.0395 $X2=1.576 $Y2=0.9845
r35 3 10 1e-05 $l=1.45e-08 $X=1.8065 $Y=1.1745 $X2=1.821 $Y2=1.1745
.ends

.subckt PM_NEURON%XI1/XI1/XI2/XOR VSS 27 31 42 46 59 70 74 16 20 18 22 5 23 12
+ 3 15 4 1 25 26 17 24 14 19 13 21
c1 1 VSS 0.00814155f $X=1.36 $Y=0.486
c2 3 VSS 0.0080061f $X=0.955 $Y=0.4185
c3 4 VSS 0.00713608f $X=0.955 $Y=0.5535
c4 5 VSS 0.00523021f $X=1.117 $Y=0.405
c5 12 VSS 0.085119f $X=1.36 $Y=0.3635
c6 13 VSS 0.0889628f $X=1.414 $Y=0.486
c7 14 VSS 0.0240917f $X=0.957 $Y=0.5535
c8 15 VSS 0.0393033f $X=0.957 $Y=0.4185
c9 16 VSS 0.0381408f $X=1.1025 $Y=0.4185
c10 17 VSS 0.00233971f $X=0.928 $Y=0.387
c11 18 VSS 0.00610438f $X=0.928 $Y=0.585
c12 19 VSS 0.00387384f $X=1.333 $Y=0.387
c13 20 VSS 0.00113021f $X=1.333 $Y=0.423
c14 21 VSS 0.000886374f $X=1.387 $Y=0.423
c15 22 VSS 0.00383302f $X=0.928 $Y=0.405
c16 23 VSS 0.0207421f $X=1.3235 $Y=0.387
c17 24 VSS 0.00101383f $X=1.333 $Y=0.405
c18 25 VSS 0.0013935f $X=1.3755 $Y=0.423
c19 26 VSS 0.00310842f $X=1.387 $Y=0.4675
r1 74 73 0.0308642 $w=8.1e-08 $l=2.5e-09 $layer=<ENCRYPTED_LAYER_48>
+ $thickness=1e-09 $X=0.9723 $Y=0.5535 $X2=0.9695 $Y2=0.5535
r2 14 73 0.154321 $w=8.1e-08 $l=1.25e-08 $layer=<ENCRYPTED_LAYER_48>
+ $thickness=1e-09 $X=0.957 $Y=0.5535 $X2=0.9695 $Y2=0.5535
r3 4 72 19.3796 $w=1.8e-08 $l=1.8e-08 $layer=<ENCRYPTED_LAYER_7> $X=0.955
+ $Y=0.5535 $X2=0.955 $Y2=0.585
r4 71 72 3.14806 $w=1.8e-08 $l=1.35e-08 $layer=M1 $thickness=3.6e-08 $X=0.9415
+ $Y=0.585 $X2=0.955 $Y2=0.585
r5 18 68 1.15159 $w=1.8e-08 $l=1e-08 $layer=M1 $thickness=3.6e-08 $X=0.928
+ $Y=0.585 $X2=0.928 $Y2=0.575
r6 18 71 1.96775 $w=1.8e-08 $l=1.35e-08 $layer=M1 $thickness=3.6e-08 $X=0.928
+ $Y=0.585 $X2=0.9415 $Y2=0.585
r7 70 69 0.0308642 $w=8.1e-08 $l=2.5e-09 $layer=<ENCRYPTED_LAYER_49>
+ $thickness=1e-09 $X=0.9723 $Y=0.4185 $X2=0.9695 $Y2=0.4185
r8 15 69 0.154321 $w=8.1e-08 $l=1.25e-08 $layer=<ENCRYPTED_LAYER_49>
+ $thickness=1e-09 $X=0.957 $Y=0.4185 $X2=0.9695 $Y2=0.4185
r9 67 68 2.79828 $w=1.8e-08 $l=1.2e-08 $layer=M1 $thickness=3.6e-08 $X=0.928
+ $Y=0.563 $X2=0.928 $Y2=0.575
r10 66 67 3.96423 $w=1.8e-08 $l=1.7e-08 $layer=M1 $thickness=3.6e-08 $X=0.928
+ $Y=0.546 $X2=0.928 $Y2=0.563
r11 65 66 3.49785 $w=1.8e-08 $l=1.5e-08 $layer=M1 $thickness=3.6e-08 $X=0.928
+ $Y=0.531 $X2=0.928 $Y2=0.546
r12 64 65 4.6638 $w=1.8e-08 $l=2e-08 $layer=M1 $thickness=3.6e-08 $X=0.928
+ $Y=0.511 $X2=0.928 $Y2=0.531
r13 63 64 3.14806 $w=1.8e-08 $l=1.35e-08 $layer=M1 $thickness=3.6e-08 $X=0.928
+ $Y=0.4975 $X2=0.928 $Y2=0.511
r14 62 63 2.68168 $w=1.8e-08 $l=1.15e-08 $layer=M1 $thickness=3.6e-08 $X=0.928
+ $Y=0.486 $X2=0.928 $Y2=0.4975
r15 61 62 2.68168 $w=1.8e-08 $l=1.15e-08 $layer=M1 $thickness=3.6e-08 $X=0.928
+ $Y=0.4745 $X2=0.928 $Y2=0.486
r16 60 61 7.34548 $w=1.8e-08 $l=3.15e-08 $layer=M1 $thickness=3.6e-08 $X=0.928
+ $Y=0.443 $X2=0.928 $Y2=0.4745
r17 22 60 8.86121 $w=1.8e-08 $l=3.8e-08 $layer=M1 $thickness=3.6e-08 $X=0.928
+ $Y=0.405 $X2=0.928 $Y2=0.443
r18 16 5 0.154321 $w=8.1e-08 $l=1.25e-08 $layer=<ENCRYPTED_LAYER_49>
+ $thickness=1e-09 $X=1.1025 $Y=0.4185 $X2=1.117 $Y2=0.405
r19 59 16 0.0308642 $w=8.1e-08 $l=2.5e-09 $layer=<ENCRYPTED_LAYER_49>
+ $thickness=1e-09 $X=1.0996 $Y=0.4185 $X2=1.1025 $Y2=0.4185
r20 3 55 19.3796 $w=1.8e-08 $l=1.8e-08 $layer=<ENCRYPTED_LAYER_7> $X=0.955
+ $Y=0.4185 $X2=0.955 $Y2=0.387
r21 17 54 1.49895 $w=1.8e-08 $l=1.35e-08 $layer=M1 $thickness=3.6e-08 $X=0.928
+ $Y=0.387 $X2=0.9415 $Y2=0.387
r22 17 22 2.5483 $w=1.8e-08 $l=1.8e-08 $layer=M1 $thickness=3.6e-08 $X=0.928
+ $Y=0.387 $X2=0.928 $Y2=0.405
r23 5 51 19.3796 $w=1.8e-08 $l=1.8e-08 $layer=<ENCRYPTED_LAYER_7> $X=1.117
+ $Y=0.405 $X2=1.117 $Y2=0.387
r24 54 55 3.14806 $w=1.8e-08 $l=1.35e-08 $layer=M1 $thickness=3.6e-08 $X=0.9415
+ $Y=0.387 $X2=0.955 $Y2=0.387
r25 53 55 3.14806 $w=1.8e-08 $l=1.35e-08 $layer=M1 $thickness=3.6e-08 $X=0.9685
+ $Y=0.387 $X2=0.955 $Y2=0.387
r26 51 52 21.5701 $w=1.8e-08 $l=9.25e-08 $layer=M1 $thickness=3.6e-08 $X=1.117
+ $Y=0.387 $X2=1.2095 $Y2=0.387
r27 50 51 17.839 $w=1.8e-08 $l=7.65e-08 $layer=M1 $thickness=3.6e-08 $X=1.0405
+ $Y=0.387 $X2=1.117 $Y2=0.387
r28 50 53 16.7897 $w=1.8e-08 $l=7.2e-08 $layer=M1 $thickness=3.6e-08 $X=1.0405
+ $Y=0.387 $X2=0.9685 $Y2=0.387
r29 49 52 22.9692 $w=1.8e-08 $l=9.85e-08 $layer=M1 $thickness=3.6e-08 $X=1.308
+ $Y=0.387 $X2=1.2095 $Y2=0.387
r30 23 49 3.61444 $w=1.8e-08 $l=1.55e-08 $layer=M1 $thickness=3.6e-08 $X=1.3235
+ $Y=0.387 $X2=1.308 $Y2=0.387
r31 19 24 2.5483 $w=1.8e-08 $l=1.8e-08 $layer=M1 $thickness=3.6e-08 $X=1.333
+ $Y=0.387 $X2=1.333 $Y2=0.405
r32 19 23 0.56619 $w=1.8e-08 $l=9.5e-09 $layer=M1 $thickness=3.6e-08 $X=1.333
+ $Y=0.387 $X2=1.3235 $Y2=0.387