* Design:	load_buffer_cell
* Created:	"Wed Dec 7 2022"
* Vendor:	"Mentor Graphics Corporation"
* Program:	"Calibre xACT 3D"
* Version:	"v2017.4_19.14"
* Corner Name: typical_27
* Nominal Temperature: 25C
* Circuit Temperature: 27C
* 
* Integrated TICER reduction is not enabled.
* SHORT DELAY THRESHOLD: 2e-15
* Fill Mode: NG
* PEX REDUCE CC ABSOLUTE : 1
* PEX REDUCE CC RELATIVE : 0.01
* Delta transform mode : 344834

* .include "load_buffer_cell.pex.netlist.pex"

* Start of included file load_buffer_cell.pex.netlist.pex

.subckt PM_load_buffer_cell%A VSS 25 11 17 28 31 4 10 7 5 1 3
c1 1 VSS 0.0118128f $X=0.072 $Y=0.135
c2 3 VSS 0.083198f $X=0.081 $Y=0.0245
c3 4 VSS 0.0808799f $X=0.135 $Y=0.135
c4 5 VSS 0.00859247f $X=0.027 $Y=0.036
c5 6 VSS 0.00181077f $X=0.027 $Y=0.135
c6 7 VSS 0.00859247f $X=0.027 $Y=0.234
c7 8 VSS 0.00980571f $X=0.027 $Y=0.0855
c8 9 VSS 0.00980571f $X=0.027 $Y=0.1845
c9 10 VSS 0.00237637f $X=0.0455 $Y=0.135
r1 7 9 10.3626 $w=1.8e-08 $l=4.95e-08 $layer=M1 $thickness=3.6e-08 $X=0.027
+ $Y=0.234 $X2=0.027 $Y2=0.1845
r2 5 8 10.3626 $w=1.8e-08 $l=4.95e-08 $layer=M1 $thickness=3.6e-08 $X=0.027
+ $Y=0.036 $X2=0.027 $Y2=0.0855
r3 6 10 3.1337 $w=1.8e-08 $l=1.85e-08 $layer=M1 $thickness=3.6e-08 $X=0.027
+ $Y=0.135 $X2=0.0455 $Y2=0.135
r4 6 8 10.3626 $w=1.8e-08 $l=4.95e-08 $layer=M1 $thickness=3.6e-08 $X=0.027
+ $Y=0.135 $X2=0.027 $Y2=0.0855
r5 6 9 10.3626 $w=1.8e-08 $l=4.95e-08 $layer=M1 $thickness=3.6e-08 $X=0.027
+ $Y=0.135 $X2=0.027 $Y2=0.1845
r6 31 30 16.4967 $w=2e-08 $l=4.85e-08 $layer=<ENCRYPTED_LAYER_23>
+ $thickness=5.6e-08 $X=0.135 $Y=0.2025 $X2=0.135 $Y2=0.154
r7 28 29 16.4967 $w=2e-08 $l=4.85e-08 $layer=<ENCRYPTED_LAYER_23>
+ $thickness=5.6e-08 $X=0.135 $Y=0.0675 $X2=0.135 $Y2=0.116
r8 4 23 6.54019 $w=2.09524e-08 $layer=<ENCRYPTED_LAYER_23>
+ $thickness=5.21905e-08 $X=0.135 $Y=0.135 $X2=0.135 $Y2=0.135
r9 4 29 6.6497 $w=2e-08 $l=1.9e-08 $layer=<ENCRYPTED_LAYER_23>
+ $thickness=5.6e-08 $X=0.135 $Y=0.135 $X2=0.135 $Y2=0.116
r10 4 30 6.6497 $w=2e-08 $l=1.9e-08 $layer=<ENCRYPTED_LAYER_23>
+ $thickness=5.6e-08 $X=0.135 $Y=0.135 $X2=0.135 $Y2=0.154
r11 25 10 4.31401 $w=1.8e-08 $l=1.85e-08 $layer=M1 $thickness=3.6e-08 $X=0.061
+ $Y=0.1325 $X2=0.0455 $Y2=0.135
r12 22 23 12.6539 $w=2.2e-08 $l=2.7e-08 $layer=LIG $thickness=4.8e-08 $X=0.108
+ $Y=0.135 $X2=0.135 $Y2=0.135
r13 25 21 19.3796 $w=1.8e-08 $l=1.8e-08 $layer=<ENCRYPTED_LAYER_4> $X=0.061
+ $Y=0.1325 $X2=0.063 $Y2=0.135
r14 19 22 12.3927 $w=2.2e-08 $l=2.6e-08 $layer=LIG $thickness=4.8e-08 $X=0.082
+ $Y=0.135 $X2=0.108 $Y2=0.135
r15 1 19 2.6116 $w=2.2e-08 $l=1e-08 $layer=LIG $thickness=4.8e-08 $X=0.072
+ $Y=0.135 $X2=0.082 $Y2=0.135
r16 1 21 4.98695 $w=2.2e-08 $l=9e-09 $layer=LIG $thickness=4.8e-08 $X=0.072
+ $Y=0.135 $X2=0.063 $Y2=0.135
r17 17 16 14.6259 $w=2e-08 $l=4.3e-08 $layer=<ENCRYPTED_LAYER_23>
+ $thickness=5.6e-08 $X=0.081 $Y=0.2025 $X2=0.081 $Y2=0.1595
r18 15 16 2.7211 $w=2e-08 $l=8e-09 $layer=<ENCRYPTED_LAYER_23>
+ $thickness=5.6e-08 $X=0.081 $Y=0.1515 $X2=0.081 $Y2=0.1595
r19 14 15 5.79936 $w=2e-08 $l=1.65e-08 $layer=<ENCRYPTED_LAYER_23>
+ $thickness=5.6e-08 $X=0.081 $Y=0.135 $X2=0.081 $Y2=0.1515
r20 14 19 6.27904 $w=2.09e-08 $l=1e-09 $layer=<ENCRYPTED_LAYER_23>
+ $thickness=5.24e-08 $X=0.081 $Y=0.135 $X2=0.082 $Y2=0.135
r21 13 14 5.79936 $w=2e-08 $l=1.65e-08 $layer=<ENCRYPTED_LAYER_23>
+ $thickness=5.6e-08 $X=0.081 $Y=0.1185 $X2=0.081 $Y2=0.135
r22 12 13 2.7211 $w=2e-08 $l=8e-09 $layer=<ENCRYPTED_LAYER_23>
+ $thickness=5.6e-08 $X=0.081 $Y=0.1105 $X2=0.081 $Y2=0.1185
r23 11 12 14.6259 $w=2e-08 $l=4.3e-08 $layer=<ENCRYPTED_LAYER_23>
+ $thickness=5.6e-08 $X=0.081 $Y=0.0675 $X2=0.081 $Y2=0.1105
r24 11 3 14.6259 $w=2e-08 $l=4.3e-08 $layer=<ENCRYPTED_LAYER_23>
+ $thickness=5.6e-08 $X=0.081 $Y=0.0675 $X2=0.081 $Y2=0.0245
.ends

.subckt PM_load_buffer_cell%NET1 VSS 40 44 120 123 126 129 132 135 138 141 144
+ 147 150 153 156 159 162 165 168 171 174 177 181 185 195 196 199 200 39 1 15
+ 34 35 36 33 37 38 20 14 32 25 27 29 21 31 23 30 22 28 24 26
c1 1 VSS 0.0963608f $X=0.6115 $Y=0.135
c2 14 VSS 0.0161244f $X=0.108 $Y=0.0675
c3 15 VSS 0.0161244f $X=0.108 $Y=0.2025
c4 20 VSS 0.0836121f $X=0.189 $Y=0.135
c5 21 VSS 0.083306f $X=0.243 $Y=0.135
c6 22 VSS 0.0833986f $X=0.297 $Y=0.135
c7 23 VSS 0.0833148f $X=0.351 $Y=0.135
c8 24 VSS 0.0833161f $X=0.405 $Y=0.135
c9 25 VSS 0.0833161f $X=0.459 $Y=0.135
c10 26 VSS 0.0833161f $X=0.513 $Y=0.135
c11 27 VSS 0.0833161f $X=0.567 $Y=0.135
c12 28 VSS 0.0833999f $X=0.621 $Y=0.0245
c13 29 VSS 0.0831179f $X=0.675 $Y=0.135
c14 30 VSS 0.0832653f $X=0.729 $Y=0.135
c15 31 VSS 0.0861945f $X=0.783 $Y=0.135
c16 32 VSS 0.013287f $X=0.0935 $Y=0.0675
c17 33 VSS 0.0132877f $X=0.0935 $Y=0.2025
c18 34 VSS 0.00945732f $X=0.135 $Y=0.036
c19 35 VSS 0.00945183f $X=0.135 $Y=0.234
c20 36 VSS 0.00305616f $X=0.135 $Y=0.135
c21 37 VSS 0.00571789f $X=0.135 $Y=0.0855
c22 38 VSS 0.00571789f $X=0.135 $Y=0.1845
c23 39 VSS 0.0163037f $X=0.2165 $Y=0.135
r1 200 198 0.0308642 $w=8.1e-08 $l=2.5e-09 $layer=<ENCRYPTED_LAYER_49>
+ $thickness=1e-09 $X=0.1253 $Y=0.2025 $X2=0.1225 $Y2=0.2025
r2 15 198 0.179012 $w=8.1e-08 $l=1.45e-08 $layer=<ENCRYPTED_LAYER_49>
+ $thickness=1e-09 $X=0.108 $Y=0.2025 $X2=0.1225 $Y2=0.2025
r3 33 15 0.179012 $w=8.1e-08 $l=1.45e-08 $layer=<ENCRYPTED_LAYER_49>
+ $thickness=1e-09 $X=0.0935 $Y=0.2025 $X2=0.108 $Y2=0.2025
r4 199 33 0.0308642 $w=8.1e-08 $l=2.5e-09 $layer=<ENCRYPTED_LAYER_49>
+ $thickness=1e-09 $X=0.0906 $Y=0.2025 $X2=0.0935 $Y2=0.2025
r5 196 194 0.0308642 $w=8.1e-08 $l=2.5e-09 $layer=<ENCRYPTED_LAYER_48>
+ $thickness=1e-09 $X=0.1253 $Y=0.0675 $X2=0.1225 $Y2=0.0675
r6 14 194 0.179012 $w=8.1e-08 $l=1.45e-08 $layer=<ENCRYPTED_LAYER_48>
+ $thickness=1e-09 $X=0.108 $Y=0.0675 $X2=0.1225 $Y2=0.0675
r7 32 14 0.179012 $w=8.1e-08 $l=1.45e-08 $layer=<ENCRYPTED_LAYER_48>
+ $thickness=1e-09 $X=0.0935 $Y=0.0675 $X2=0.108 $Y2=0.0675
r8 195 32 0.0308642 $w=8.1e-08 $l=2.5e-09 $layer=<ENCRYPTED_LAYER_48>
+ $thickness=1e-09 $X=0.0906 $Y=0.0675 $X2=0.0935 $Y2=0.0675
r9 15 191 19.3796 $w=1.8e-08 $l=1.8e-08 $layer=<ENCRYPTED_LAYER_7> $X=0.108
+ $Y=0.2025 $X2=0.108 $Y2=0.234
r10 14 188 19.3796 $w=1.8e-08 $l=1.8e-08 $layer=<ENCRYPTED_LAYER_7> $X=0.108
+ $Y=0.0675 $X2=0.108 $Y2=0.036
r11 191 192 3.14806 $w=1.8e-08 $l=1.35e-08 $layer=M1 $thickness=3.6e-08
+ $X=0.108 $Y=0.234 $X2=0.1215 $Y2=0.234
r12 35 38 10.3626 $w=1.8e-08 $l=4.95e-08 $layer=M1 $thickness=3.6e-08 $X=0.135
+ $Y=0.234 $X2=0.135 $Y2=0.1845
r13 35 192 1.96775 $w=1.8e-08 $l=1.35e-08 $layer=M1 $thickness=3.6e-08 $X=0.135
+ $Y=0.234 $X2=0.1215 $Y2=0.234
r14 188 189 3.14806 $w=1.8e-08 $l=1.35e-08 $layer=M1 $thickness=3.6e-08
+ $X=0.108 $Y=0.036 $X2=0.1215 $Y2=0.036
r15 34 37 10.3626 $w=1.8e-08 $l=4.95e-08 $layer=M1 $thickness=3.6e-08 $X=0.135
+ $Y=0.036 $X2=0.135 $Y2=0.0855
r16 34 189 1.96775 $w=1.8e-08 $l=1.35e-08 $layer=M1 $thickness=3.6e-08 $X=0.135
+ $Y=0.036 $X2=0.1215 $Y2=0.036
r17 36 116 5.11582 $w=1.8e-08 $l=2.7e-08 $layer=M1 $thickness=3.6e-08 $X=0.135
+ $Y=0.135 $X2=0.162 $Y2=0.135
r18 36 37 10.3626 $w=1.8e-08 $l=4.95e-08 $layer=M1 $thickness=3.6e-08 $X=0.135
+ $Y=0.135 $X2=0.135 $Y2=0.0855
r19 36 38 10.3626 $w=1.8e-08 $l=4.95e-08 $layer=M1 $thickness=3.6e-08 $X=0.135
+ $Y=0.135 $X2=0.135 $Y2=0.1845
r20 185 184 14.6259 $w=2e-08 $l=4.3e-08 $layer=<ENCRYPTED_LAYER_23>
+ $thickness=5.6e-08 $X=0.783 $Y=0.2025 $X2=0.783 $Y2=0.1595
r21 183 184 2.7211 $w=2e-08 $l=8e-09 $layer=<ENCRYPTED_LAYER_23>
+ $thickness=5.6e-08 $X=0.783 $Y=0.1515 $X2=0.783 $Y2=0.1595
r22 181 182 14.6259 $w=2e-08 $l=4.3e-08 $layer=<ENCRYPTED_LAYER_23>
+ $thickness=5.6e-08 $X=0.783 $Y=0.0675 $X2=0.783 $Y2=0.1105
r23 179 182 2.7211 $w=2e-08 $l=8e-09 $layer=<ENCRYPTED_LAYER_23>
+ $thickness=5.6e-08 $X=0.783 $Y=0.1185 $X2=0.783 $Y2=0.1105
r24 31 91 6.27904 $w=2.09e-08 $layer=<ENCRYPTED_LAYER_23> $thickness=5.24e-08
+ $X=0.783 $Y=0.135 $X2=0.783 $Y2=0.135
r25 31 179 5.79936 $w=2e-08 $l=1.65e-08 $layer=<ENCRYPTED_LAYER_23>
+ $thickness=5.6e-08 $X=0.783 $Y=0.135 $X2=0.783 $Y2=0.1185
r26 31 183 5.79936 $w=2e-08 $l=1.65e-08 $layer=<ENCRYPTED_LAYER_23>
+ $thickness=5.6e-08 $X=0.783 $Y=0.135 $X2=0.783 $Y2=0.1515
r27 177 176 16.4967 $w=2e-08 $l=4.85e-08 $layer=<ENCRYPTED_LAYER_23>
+ $thickness=5.6e-08 $X=0.729 $Y=0.2025 $X2=0.729 $Y2=0.154
r28 174 175 16.4967 $w=2e-08 $l=4.85e-08 $layer=<ENCRYPTED_LAYER_23>
+ $thickness=5.6e-08 $X=0.729 $Y=0.0675 $X2=0.729 $Y2=0.116
r29 30 87 6.27904 $w=2.09e-08 $layer=<ENCRYPTED_LAYER_23> $thickness=5.24e-08
+ $X=0.729 $Y=0.135 $X2=0.729 $Y2=0.135
r30 30 175 6.6497 $w=2e-08 $l=1.9e-08 $layer=<ENCRYPTED_LAYER_23>
+ $thickness=5.6e-08 $X=0.729 $Y=0.135 $X2=0.729 $Y2=0.116
r31 30 176 6.6497 $w=2e-08 $l=1.9e-08 $layer=<ENCRYPTED_LAYER_23>
+ $thickness=5.6e-08 $X=0.729 $Y=0.135 $X2=0.729 $Y2=0.154
r32 171 170 16.4967 $w=2e-08 $l=4.85e-08 $layer=<ENCRYPTED_LAYER_23>
+ $thickness=5.6e-08 $X=0.675 $Y=0.2025 $X2=0.675 $Y2=0.154
r33 168 169 16.4967 $w=2e-08 $l=4.85e-08 $layer=<ENCRYPTED_LAYER_23>
+ $thickness=5.6e-08 $X=0.675 $Y=0.0675 $X2=0.675 $Y2=0.116
r34 29 83 6.27904 $w=2.09e-08 $layer=<ENCRYPTED_LAYER_23> $thickness=5.24e-08
+ $X=0.675 $Y=0.135 $X2=0.675 $Y2=0.135
r35 29 169 6.6497 $w=2e-08 $l=1.9e-08 $layer=<ENCRYPTED_LAYER_23>
+ $thickness=5.6e-08 $X=0.675 $Y=0.135 $X2=0.675 $Y2=0.116
r36 29 170 6.6497 $w=2e-08 $l=1.9e-08 $layer=<ENCRYPTED_LAYER_23>
+ $thickness=5.6e-08 $X=0.675 $Y=0.135 $X2=0.675 $Y2=0.154
r37 165 164 16.4967 $w=2e-08 $l=4.85e-08 $layer=<ENCRYPTED_LAYER_23>
+ $thickness=5.6e-08 $X=0.189 $Y=0.2025 $X2=0.189 $Y2=0.154
r38 162 163 16.4967 $w=2e-08 $l=4.85e-08 $layer=<ENCRYPTED_LAYER_23>
+ $thickness=5.6e-08 $X=0.189 $Y=0.0675 $X2=0.189 $Y2=0.116
r39 20 78 6.27904 $w=2.09e-08 $layer=<ENCRYPTED_LAYER_23> $thickness=5.24e-08
+ $X=0.189 $Y=0.135 $X2=0.189 $Y2=0.135
r40 20 163 6.6497 $w=2e-08 $l=1.9e-08 $layer=<ENCRYPTED_LAYER_23>
+ $thickness=5.6e-08 $X=0.189 $Y=0.135 $X2=0.189 $Y2=0.116
r41 20 164 6.6497 $w=2e-08 $l=1.9e-08 $layer=<ENCRYPTED_LAYER_23>
+ $thickness=5.6e-08 $X=0.189 $Y=0.135 $X2=0.189 $Y2=0.154
r42 159 158 16.4967 $w=2e-08 $l=4.85e-08 $layer=<ENCRYPTED_LAYER_23>
+ $thickness=5.6e-08 $X=0.243 $Y=0.2025 $X2=0.243 $Y2=0.154
r43 156 157 16.4967 $w=2e-08 $l=4.85e-08 $layer=<ENCRYPTED_LAYER_23>
+ $thickness=5.6e-08 $X=0.243 $Y=0.0675 $X2=0.243 $Y2=0.116
r44 21 74 6.27904 $w=2.09e-08 $layer=<ENCRYPTED_LAYER_23> $thickness=5.24e-08
+ $X=0.243 $Y=0.135 $X2=0.243 $Y2=0.135
r45 21 157 6.6497 $w=2e-08 $l=1.9e-08 $layer=<ENCRYPTED_LAYER_23>
+ $thickness=5.6e-08 $X=0.243 $Y=0.135 $X2=0.243 $Y2=0.116
r46 21 158 6.6497 $w=2e-08 $l=1.9e-08 $layer=<ENCRYPTED_LAYER_23>
+ $thickness=5.6e-08 $X=0.243 $Y=0.135 $X2=0.243 $Y2=0.154
r47 153 152 16.4967 $w=2e-08 $l=4.85e-08 $layer=<ENCRYPTED_LAYER_23>
+ $thickness=5.6e-08 $X=0.297 $Y=0.2025 $X2=0.297 $Y2=0.154
r48 150 151 16.4967 $w=2e-08 $l=4.85e-08 $layer=<ENCRYPTED_LAYER_23>
+ $thickness=5.6e-08 $X=0.297 $Y=0.0675 $X2=0.297 $Y2=0.116
r49 22 70 6.27904 $w=2.09e-08 $layer=<ENCRYPTED_LAYER_23> $thickness=5.24e-08
+ $X=0.297 $Y=0.135 $X2=0.297 $Y2=0.135
r50 22 151 6.6497 $w=2e-08 $l=1.9e-08 $layer=<ENCRYPTED_LAYER_23>
+ $thickness=5.6e-08 $X=0.297 $Y=0.135 $X2=0.297 $Y2=0.116
r51 22 152 6.6497 $w=2e-08 $l=1.9e-08 $layer=<ENCRYPTED_LAYER_23>
+ $thickness=5.6e-08 $X=0.297 $Y=0.135 $X2=0.297 $Y2=0.154
r52 147 146 16.4967 $w=2e-08 $l=4.85e-08 $layer=<ENCRYPTED_LAYER_23>
+ $thickness=5.6e-08 $X=0.351 $Y=0.2025 $X2=0.351 $Y2=0.154
r53 144 145 16.4967 $w=2e-08 $l=4.85e-08 $layer=<ENCRYPTED_LAYER_23>
+ $thickness=5.6e-08 $X=0.351 $Y=0.0675 $X2=0.351 $Y2=0.116
r54 23 66 6.27904 $w=2.09e-08 $layer=<ENCRYPTED_LAYER_23> $thickness=5.24e-08
+ $X=0.351 $Y=0.135 $X2=0.351 $Y2=0.135
r55 23 145 6.6497 $w=2e-08 $l=1.9e-08 $layer=<ENCRYPTED_LAYER_23>
+ $thickness=5.6e-08 $X=0.351 $Y=0.135 $X2=0.351 $Y2=0.116
r56 23 146 6.6497 $w=2e-08 $l=1.9e-08 $layer=<ENCRYPTED_LAYER_23>
+ $thickness=5.6e-08 $X=0.351 $Y=0.135 $X2=0.351 $Y2=0.154
r57 141 140 16.4967 $w=2e-08 $l=4.85e-08 $layer=<ENCRYPTED_LAYER_23>
+ $thickness=5.6e-08 $X=0.405 $Y=0.2025 $X2=0.405 $Y2=0.154
r58 138 139 16.4967 $w=2e-08 $l=4.85e-08 $layer=<ENCRYPTED_LAYER_23>
+ $thickness=5.6e-08 $X=0.405 $Y=0.0675 $X2=0.405 $Y2=0.116
r59 24 62 6.27904 $w=2.09e-08 $layer=<ENCRYPTED_LAYER_23> $thickness=5.24e-08
+ $X=0.405 $Y=0.135 $X2=0.405 $Y2=0.135
r60 24 139 6.6497 $w=2e-08 $l=1.9e-08 $layer=<ENCRYPTED_LAYER_23>
+ $thickness=5.6e-08 $X=0.405 $Y=0.135 $X2=0.405 $Y2=0.116
r61 24 140 6.6497 $w=2e-08 $l=1.9e-08 $layer=<ENCRYPTED_LAYER_23>
+ $thickness=5.6e-08 $X=0.405 $Y=0.135 $X2=0.405 $Y2=0.154
r62 135 134 16.4967 $w=2e-08 $l=4.85e-08 $layer=<ENCRYPTED_LAYER_23>
+ $thickness=5.6e-08 $X=0.459 $Y=0.2025 $X2=0.459 $Y2=0.154
r63 132 133 16.4967 $w=2e-08 $l=4.85e-08 $layer=<ENCRYPTED_LAYER_23>
+ $thickness=5.6e-08 $X=0.459 $Y=0.0675 $X2=0.459 $Y2=0.116
r64 25 58 6.27904 $w=2.09e-08 $layer=<ENCRYPTED_LAYER_23> $thickness=5.24e-08
+ $X=0.459 $Y=0.135 $X2=0.459 $Y2=0.135
r65 25 133 6.6497 $w=2e-08 $l=1.9e-08 $layer=<ENCRYPTED_LAYER_23>
+ $thickness=5.6e-08 $X=0.459 $Y=0.135 $X2=0.459 $Y2=0.116
r66 25 134 6.6497 $w=2e-08 $l=1.9e-08 $layer=<ENCRYPTED_LAYER_23>
+ $thickness=5.6e-08 $X=0.459 $Y=0.135 $X2=0.459 $Y2=0.154
r67 129 128 16.4967 $w=2e-08 $l=4.85e-08 $layer=<ENCRYPTED_LAYER_23>
+ $thickness=5.6e-08 $X=0.513 $Y=0.2025 $X2=0.513 $Y2=0.154
r68 126 127 16.4967 $w=2e-08 $l=4.85e-08 $layer=<ENCRYPTED_LAYER_23>
+ $thickness=5.6e-08 $X=0.513 $Y=0.0675 $X2=0.513 $Y2=0.116
r69 26 54 6.27904 $w=2.09e-08 $layer=<ENCRYPTED_LAYER_23> $thickness=5.24e-08
+ $X=0.513 $Y=0.135 $X2=0.513 $Y2=0.135
r70 26 127 6.6497 $w=2e-08 $l=1.9e-08 $layer=<ENCRYPTED_LAYER_23>
+ $thickness=5.6e-08 $X=0.513 $Y=0.135 $X2=0.513 $Y2=0.116
r71 26 128 6.6497 $w=2e-08 $l=1.9e-08 $layer=<ENCRYPTED_LAYER_23>
+ $thickness=5.6e-08 $X=0.513 $Y=0.135 $X2=0.513 $Y2=0.154
r72 123 122 16.4967 $w=2e-08 $l=4.85e-08 $layer=<ENCRYPTED_LAYER_23>
+ $thickness=5.6e-08 $X=0.567 $Y=0.2025 $X2=0.567 $Y2=0.154
r73 120 121 16.4967 $w=2e-08 $l=4.85e-08 $layer=<ENCRYPTED_LAYER_23>
+ $thickness=5.6e-08 $X=0.567 $Y=0.0675 $X2=0.567 $Y2=0.116
r74 27 50 6.27904 $w=2.09e-08 $layer=<ENCRYPTED_LAYER_23> $thickness=5.24e-08
+ $X=0.567 $Y=0.135 $X2=0.567 $Y2=0.135
r75 27 121 6.6497 $w=2e-08 $l=1.9e-08 $layer=<ENCRYPTED_LAYER_23>
+ $thickness=5.6e-08 $X=0.567 $Y=0.135 $X2=0.567 $Y2=0.116
r76 27 122 6.6497 $w=2e-08 $l=1.9e-08 $layer=<ENCRYPTED_LAYER_23>
+ $thickness=5.6e-08 $X=0.567 $Y=0.135 $X2=0.567 $Y2=0.154
r77 117 118 2.2153 $w=1.8e-08 $l=9.5e-09 $layer=M1 $thickness=3.6e-08 $X=0.189
+ $Y=0.135 $X2=0.1985 $Y2=0.135
r78 116 117 6.29612 $w=1.8e-08 $l=2.7e-08 $layer=M1 $thickness=3.6e-08 $X=0.162
+ $Y=0.135 $X2=0.189 $Y2=0.135
r79 113 114 6.29612 $w=1.8e-08 $l=2.7e-08 $layer=M1 $thickness=3.6e-08 $X=0.756
+ $Y=0.135 $X2=0.783 $Y2=0.135
r80 112 113 6.29612 $w=1.8e-08 $l=2.7e-08 $layer=M1 $thickness=3.6e-08 $X=0.729
+ $Y=0.135 $X2=0.756 $Y2=0.135
r81 111 112 6.29612 $w=1.8e-08 $l=2.7e-08 $layer=M1 $thickness=3.6e-08 $X=0.702
+ $Y=0.135 $X2=0.729 $Y2=0.135
r82 110 111 6.29612 $w=1.8e-08 $l=2.7e-08 $layer=M1 $thickness=3.6e-08 $X=0.675
+ $Y=0.135 $X2=0.702 $Y2=0.135
r83 109 110 6.29612 $w=1.8e-08 $l=2.7e-08 $layer=M1 $thickness=3.6e-08 $X=0.648
+ $Y=0.135 $X2=0.675 $Y2=0.135
r84 108 109 6.29612 $w=1.8e-08 $l=2.7e-08 $layer=M1 $thickness=3.6e-08 $X=0.621
+ $Y=0.135 $X2=0.648 $Y2=0.135
r85 107 108 6.29612 $w=1.8e-08 $l=2.7e-08 $layer=M1 $thickness=3.6e-08 $X=0.594
+ $Y=0.135 $X2=0.621 $Y2=0.135
r86 106 107 6.29612 $w=1.8e-08 $l=2.7e-08 $layer=M1 $thickness=3.6e-08 $X=0.567
+ $Y=0.135 $X2=0.594 $Y2=0.135
r87 105 106 6.29612 $w=1.8e-08 $l=2.7e-08 $layer=M1 $thickness=3.6e-08 $X=0.54
+ $Y=0.135 $X2=0.567 $Y2=0.135
r88 104 105 6.29612 $w=1.8e-08 $l=2.7e-08 $layer=M1 $thickness=3.6e-08 $X=0.513
+ $Y=0.135 $X2=0.54 $Y2=0.135
r89 103 104 6.29612 $w=1.8e-08 $l=2.7e-08 $layer=M1 $thickness=3.6e-08 $X=0.486
+ $Y=0.135 $X2=0.513 $Y2=0.135
r90 102 103 6.29612 $w=1.8e-08 $l=2.7e-08 $layer=M1 $thickness=3.6e-08 $X=0.459
+ $Y=0.135 $X2=0.486 $Y2=0.135
r91 101 102 6.29612 $w=1.8e-08 $l=2.7e-08 $layer=M1 $thickness=3.6e-08 $X=0.432
+ $Y=0.135 $X2=0.459 $Y2=0.135
r92 100 101 6.29612 $w=1.8e-08 $l=2.7e-08 $layer=M1 $thickness=3.6e-08 $X=0.405
+ $Y=0.135 $X2=0.432 $Y2=0.135
r93 99 100 6.29612 $w=1.8e-08 $l=2.7e-08 $layer=M1 $thickness=3.6e-08 $X=0.378
+ $Y=0.135 $X2=0.405 $Y2=0.135
r94 98 99 6.29612 $w=1.8e-08 $l=2.7e-08 $layer=M1 $thickness=3.6e-08 $X=0.351
+ $Y=0.135 $X2=0.378 $Y2=0.135
r95 97 98 6.29612 $w=1.8e-08 $l=2.7e-08 $layer=M1 $thickness=3.6e-08 $X=0.324
+ $Y=0.135 $X2=0.351 $Y2=0.135
r96 96 97 6.29612 $w=1.8e-08 $l=2.7e-08 $layer=M1 $thickness=3.6e-08 $X=0.297
+ $Y=0.135 $X2=0.324 $Y2=0.135
r97 95 96 6.29612 $w=1.8e-08 $l=2.7e-08 $layer=M1 $thickness=3.6e-08 $X=0.27
+ $Y=0.135 $X2=0.297 $Y2=0.135
r98 94 95 6.29612 $w=1.8e-08 $l=2.7e-08 $layer=M1 $thickness=3.6e-08 $X=0.243
+ $Y=0.135 $X2=0.27 $Y2=0.135
r99 39 94 6.17953 $w=1.8e-08 $l=2.65e-08 $layer=M1 $thickness=3.6e-08 $X=0.2165
+ $Y=0.135 $X2=0.243 $Y2=0.135
r100 39 118 4.19742 $w=1.8e-08 $l=1.8e-08 $layer=M1 $thickness=3.6e-08
+ $X=0.2165 $Y=0.135 $X2=0.1985 $Y2=0.135
r101 91 114 19.3796 $w=1.8e-08 $l=1.8e-08 $layer=<ENCRYPTED_LAYER_4> $X=0.783
+ $Y=0.135 $X2=0.783 $Y2=0.135
r102 90 91 2.48102 $w=2.2e-08 $l=9.5e-09 $layer=LIG $thickness=4.8e-08
+ $X=0.7735 $Y=0.135 $X2=0.783 $Y2=0.135
r103 89 90 10.1729 $w=2.2e-08 $l=1.75e-08 $layer=LIG $thickness=4.8e-08
+ $X=0.756 $Y=0.135 $X2=0.7735 $Y2=0.135
r104 88 89 10.1729 $w=2.2e-08 $l=1.75e-08 $layer=LIG $thickness=4.8e-08
+ $X=0.7385 $Y=0.135 $X2=0.756 $Y2=0.135
r105 87 88 2.48102 $w=2.2e-08 $l=9.5e-09 $layer=LIG $thickness=4.8e-08 $X=0.729
+ $Y=0.135 $X2=0.7385 $Y2=0.135
r106 87 112 19.3796 $w=1.8e-08 $l=1.8e-08 $layer=<ENCRYPTED_LAYER_4> $X=0.729
+ $Y=0.135 $X2=0.729 $Y2=0.135
r107 86 87 2.48102 $w=2.2e-08 $l=9.5e-09 $layer=LIG $thickness=4.8e-08
+ $X=0.7195 $Y=0.135 $X2=0.729 $Y2=0.135
r108 85 86 10.1729 $w=2.2e-08 $l=1.75e-08 $layer=LIG $thickness=4.8e-08
+ $X=0.702 $Y=0.135 $X2=0.7195 $Y2=0.135
r109 84 85 10.1729 $w=2.2e-08 $l=1.75e-08 $layer=LIG $thickness=4.8e-08
+ $X=0.6845 $Y=0.135 $X2=0.702 $Y2=0.135
r110 83 84 2.48102 $w=2.2e-08 $l=9.5e-09 $layer=LIG $thickness=4.8e-08 $X=0.675
+ $Y=0.135 $X2=0.6845 $Y2=0.135
r111 83 110 19.3796 $w=1.8e-08 $l=1.8e-08 $layer=<ENCRYPTED_LAYER_4> $X=0.675
+ $Y=0.135 $X2=0.675 $Y2=0.135
r112 82 83 2.48102 $w=2.2e-08 $l=9.5e-09 $layer=LIG $thickness=4.8e-08
+ $X=0.6655 $Y=0.135 $X2=0.675 $Y2=0.135
r113 81 82 10.1729 $w=2.2e-08 $l=1.75e-08 $layer=LIG $thickness=4.8e-08
+ $X=0.648 $Y=0.135 $X2=0.6655 $Y2=0.135
r114 78 79 2.48102 $w=2.2e-08 $l=9.5e-09 $layer=LIG $thickness=4.8e-08 $X=0.189
+ $Y=0.135 $X2=0.1985 $Y2=0.135
r115 78 117 19.3796 $w=1.8e-08 $l=1.8e-08 $layer=<ENCRYPTED_LAYER_4> $X=0.189
+ $Y=0.135 $X2=0.189 $Y2=0.135
r116 76 79 10.1729 $w=2.2e-08 $l=1.75e-08 $layer=LIG $thickness=4.8e-08
+ $X=0.216 $Y=0.135 $X2=0.1985 $Y2=0.135
r117 74 75 2.48102 $w=2.2e-08 $l=9.5e-09 $layer=LIG $thickness=4.8e-08 $X=0.243
+ $Y=0.135 $X2=0.2525 $Y2=0.135
r118 74 94 19.3796 $w=1.8e-08 $l=1.8e-08 $layer=<ENCRYPTED_LAYER_4> $X=0.243
+ $Y=0.135 $X2=0.243 $Y2=0.135
r119 73 74 2.48102 $w=2.2e-08 $l=9.5e-09 $layer=LIG $thickness=4.8e-08
+ $X=0.2335 $Y=0.135 $X2=0.243 $Y2=0.135
r120 73 76 10.1729 $w=2.2e-08 $l=1.75e-08 $layer=LIG $thickness=4.8e-08
+ $X=0.2335 $Y=0.135 $X2=0.216 $Y2=0.135
r121 72 75 10.1729 $w=2.2e-08 $l=1.75e-08 $layer=LIG $thickness=4.8e-08 $X=0.27
+ $Y=0.135 $X2=0.2525 $Y2=0.135
r122 70 71 2.48102 $w=2.2e-08 $l=9.5e-09 $layer=LIG $thickness=4.8e-08 $X=0.297
+ $Y=0.135 $X2=0.3065 $Y2=0.135
r123 70 96 19.3796 $w=1.8e-08 $l=1.8e-08 $layer=<ENCRYPTED_LAYER_4> $X=0.297
+ $Y=0.135 $X2=0.297 $Y2=0.135
r124 69 70 2.48102 $w=2.2e-08 $l=9.5e-09 $layer=LIG $thickness=4.8e-08
+ $X=0.2875 $Y=0.135 $X2=0.297 $Y2=0.135
r125 69 72 10.1729 $w=2.2e-08 $l=1.75e-08 $layer=LIG $thickness=4.8e-08
+ $X=0.2875 $Y=0.135 $X2=0.27 $Y2=0.135
r126 68 71 10.1729 $w=2.2e-08 $l=1.75e-08 $layer=LIG $thickness=4.8e-08
+ $X=0.324 $Y=0.135 $X2=0.3065 $Y2=0.135
r127 66 67 2.48102 $w=2.2e-08 $l=9.5e-09 $layer=LIG $thickness=4.8e-08 $X=0.351
+ $Y=0.135 $X2=0.3605 $Y2=0.135
r128 66 98 19.3796 $w=1.8e-08 $l=1.8e-08 $layer=<ENCRYPTED_LAYER_4> $X=0.351
+ $Y=0.135 $X2=0.351 $Y2=0.135
r129 65 66 2.48102 $w=2.2e-08 $l=9.5e-09 $layer=LIG $thickness=4.8e-08
+ $X=0.3415 $Y=0.135 $X2=0.351 $Y2=0.135
r130 65 68 10.1729 $w=2.2e-08 $l=1.75e-08 $layer=LIG $thickness=4.8e-08
+ $X=0.3415 $Y=0.135 $X2=0.324 $Y2=0.135
r131 64 67 10.1729 $w=2.2e-08 $l=1.75e-08 $layer=LIG $thickness=4.8e-08
+ $X=0.378 $Y=0.135 $X2=0.3605 $Y2=0.135
r132 62 63 2.48102 $w=2.2e-08 $l=9.5e-09 $layer=LIG $thickness=4.8e-08 $X=0.405
+ $Y=0.135 $X2=0.4145 $Y2=0.135
r133 62 100 19.3796 $w=1.8e-08 $l=1.8e-08 $layer=<ENCRYPTED_LAYER_4> $X=0.405
+ $Y=0.135 $X2=0.405 $Y2=0.135
r134 61 62 2.48102 $w=2.2e-08 $l=9.5e-09 $layer=LIG $thickness=4.8e-08
+ $X=0.3955 $Y=0.135 $X2=0.405 $Y2=0.135
r135 61 64 10.1729 $w=2.2e-08 $l=1.75e-08 $layer=LIG $thickness=4.8e-08
+ $X=0.3955 $Y=0.135 $X2=0.378 $Y2=0.135
r136 60 63 10.1729 $w=2.2e-08 $l=1.75e-08 $layer=LIG $thickness=4.8e-08
+ $X=0.432 $Y=0.135 $X2=0.4145 $Y2=0.135
r137 58 59 2.48102 $w=2.2e-08 $l=9.5e-09 $layer=LIG $thickness=4.8e-08 $X=0.459
+ $Y=0.135 $X2=0.4685 $Y2=0.135
r138 58 102 19.3796 $w=1.8e-08 $l=1.8e-08 $layer=<ENCRYPTED_LAYER_4> $X=0.459
+ $Y=0.135 $X2=0.459 $Y2=0.135
r139 57 58 2.48102 $w=2.2e-08 $l=9.5e-09 $layer=LIG $thickness=4.8e-08
+ $X=0.4495 $Y=0.135 $X2=0.459 $Y2=0.135
r140 57 60 10.1729 $w=2.2e-08 $l=1.75e-08 $layer=LIG $thickness=4.8e-08
+ $X=0.4495 $Y=0.135 $X2=0.432 $Y2=0.135
r141 56 59 10.1729 $w=2.2e-08 $l=1.75e-08 $layer=LIG $thickness=4.8e-08
+ $X=0.486 $Y=0.135 $X2=0.4685 $Y2=0.135
r142 54 55 2.48102 $w=2.2e-08 $l=9.5e-09 $layer=LIG $thickness=4.8e-08 $X=0.513
+ $Y=0.135 $X2=0.5225 $Y2=0.135
r143 54 104 19.3796 $w=1.8e-08 $l=1.8e-08 $layer=<ENCRYPTED_LAYER_4> $X=0.513
+ $Y=0.135 $X2=0.513 $Y2=0.135
r144 53 54 2.48102 $w=2.2e-08 $l=9.5e-09 $layer=LIG $thickness=4.8e-08
+ $X=0.5035 $Y=0.135 $X2=0.513 $Y2=0.135
r145 53 56 10.1729 $w=2.2e-08 $l=1.75e-08 $layer=LIG $thickness=4.8e-08
+ $X=0.5035 $Y=0.135 $X2=0.486 $Y2=0.135
r146 52 55 10.1729 $w=2.2e-08 $l=1.75e-08 $layer=LIG $thickness=4.8e-08 $X=0.54
+ $Y=0.135 $X2=0.5225 $Y2=0.135
r147 50 51 2.48102 $w=2.2e-08 $l=9.5e-09 $layer=LIG $thickness=4.8e-08 $X=0.567
+ $Y=0.135 $X2=0.5765 $Y2=0.135
r148 50 106 19.3796 $w=1.8e-08 $l=1.8e-08 $layer=<ENCRYPTED_LAYER_4> $X=0.567
+ $Y=0.135 $X2=0.567 $Y2=0.135
r149 49 50 2.48102 $w=2.2e-08 $l=9.5e-09 $layer=LIG $thickness=4.8e-08
+ $X=0.5575 $Y=0.135 $X2=0.567 $Y2=0.135
r150 49 52 10.1729 $w=2.2e-08 $l=1.75e-08 $layer=LIG $thickness=4.8e-08
+ $X=0.5575 $Y=0.135 $X2=0.54 $Y2=0.135
r151 48 51 10.1729 $w=2.2e-08 $l=1.75e-08 $layer=LIG $thickness=4.8e-08
+ $X=0.594 $Y=0.135 $X2=0.5765 $Y2=0.135
r152 47 81 10.1729 $w=2.2e-08 $l=1.75e-08 $layer=LIG $thickness=4.8e-08
+ $X=0.6305 $Y=0.135 $X2=0.648 $Y2=0.135
r153 46 47 2.48102 $w=2.2e-08 $l=9.5e-09 $layer=LIG $thickness=4.8e-08 $X=0.621
+ $Y=0.135 $X2=0.6305 $Y2=0.135
r154 46 108 19.3796 $w=1.8e-08 $l=1.8e-08 $layer=<ENCRYPTED_LAYER_4> $X=0.621
+ $Y=0.135 $X2=0.621 $Y2=0.135
r155 1 46 2.48102 $w=2.2e-08 $l=9.5e-09 $layer=LIG $thickness=4.8e-08 $X=0.6115
+ $Y=0.135 $X2=0.621 $Y2=0.135
r156 1 48 10.1729 $w=2.2e-08 $l=1.75e-08 $layer=LIG $thickness=4.8e-08
+ $X=0.6115 $Y=0.135 $X2=0.594 $Y2=0.135
r157 44 43 16.4967 $w=2e-08 $l=4.85e-08 $layer=<ENCRYPTED_LAYER_23>
+ $thickness=5.6e-08 $X=0.621 $Y=0.2025 $X2=0.621 $Y2=0.154
r158 42 43 6.6497 $w=2e-08 $l=1.9e-08 $layer=<ENCRYPTED_LAYER_23>
+ $thickness=5.6e-08 $X=0.621 $Y=0.135 $X2=0.621 $Y2=0.154
r159 42 47 4.05918 $w=2.0087e-08 $l=9.5e-09 $layer=<ENCRYPTED_LAYER_23>
+ $thickness=5.56522e-08 $X=0.621 $Y=0.135 $X2=0.6305 $Y2=0.135
r160 42 46 6.27904 $w=2.09e-08 $layer=<ENCRYPTED_LAYER_23> $thickness=5.24e-08
+ $X=0.621 $Y=0.135 $X2=0.621 $Y2=0.135
r161 41 42 6.6497 $w=2e-08 $l=1.9e-08 $layer=<ENCRYPTED_LAYER_23>
+ $thickness=5.6e-08 $X=0.621 $Y=0.116 $X2=0.621 $Y2=0.135
r162 40 41 16.4967 $w=2e-08 $l=4.85e-08 $layer=<ENCRYPTED_LAYER_23>
+ $thickness=5.6e-08 $X=0.621 $Y=0.0675 $X2=0.621 $Y2=0.116
r163 40 28 14.6259 $w=2e-08 $l=4.3e-08 $layer=<ENCRYPTED_LAYER_23>
+ $thickness=5.6e-08 $X=0.621 $Y=0.0675 $X2=0.621 $Y2=0.0245
.ends

.subckt PM_load_buffer_cell%Y VSS 93 56 57 73 74 77 78 81 82 85 86 89 90 110
+ 111 114 115 118 119 122 123 126 127 130 131 38 2 5 6 8 10 4 12 48 43 44 45 46
+ 47 42 37 39 40 41 53 11 9 7 3 1 51 52
c1 1 VSS 0.0100341f $X=0.216 $Y=0.0675
c2 2 VSS 0.010068f $X=0.216 $Y=0.2025
c3 3 VSS 0.00972002f $X=0.324 $Y=0.0675
c4 4 VSS 0.00972002f $X=0.324 $Y=0.2025
c5 5 VSS 0.00970619f $X=0.432 $Y=0.0675
c6 6 VSS 0.00970619f $X=0.432 $Y=0.2025
c7 7 VSS 0.00971924f $X=0.54 $Y=0.0675
c8 8 VSS 0.0097171f $X=0.54 $Y=0.2025
c9 9 VSS 0.00969134f $X=0.648 $Y=0.0675
c10 10 VSS 0.00969134f $X=0.648 $Y=0.2025
c11 11 VSS 0.00970007f $X=0.756 $Y=0.0675
c12 12 VSS 0.00970007f $X=0.756 $Y=0.2025
c13 37 VSS 0.00446478f $X=0.2015 $Y=0.0675
c14 38 VSS 0.00436476f $X=0.3095 $Y=0.0675
c15 39 VSS 0.00437108f $X=0.4175 $Y=0.0675
c16 40 VSS 0.00437108f $X=0.5255 $Y=0.0675
c17 41 VSS 0.00435429f $X=0.6335 $Y=0.0675
c18 42 VSS 0.00440005f $X=0.7415 $Y=0.0675
c19 43 VSS 0.00441377f $X=0.2015 $Y=0.2025
c20 44 VSS 0.00436062f $X=0.3095 $Y=0.2025
c21 45 VSS 0.00435556f $X=0.4175 $Y=0.2025
c22 46 VSS 0.00435556f $X=0.5255 $Y=0.2025
c23 47 VSS 0.00434221f $X=0.6335 $Y=0.2025
c24 48 VSS 0.00441564f $X=0.7415 $Y=0.2025
c25 49 VSS 0.00326778f $X=0.837 $Y=0.036
c26 50 VSS 0.00326778f $X=0.837 $Y=0.234
c27 51 VSS 0.0605596f $X=0.203 $Y=0.036
c28 52 VSS 0.0605596f $X=0.814 $Y=0.234
c29 53 VSS 0.00803827f $X=0.837 $Y=0.0855
r1 131 129 0.0308642 $w=8.1e-08 $l=2.5e-09 $layer=<ENCRYPTED_LAYER_49>
+ $thickness=1e-09 $X=0.7733 $Y=0.2025 $X2=0.7705 $Y2=0.2025
r2 12 129 0.179012 $w=8.1e-08 $l=1.45e-08 $layer=<ENCRYPTED_LAYER_49>
+ $thickness=1e-09 $X=0.756 $Y=0.2025 $X2=0.7705 $Y2=0.2025
r3 48 12 0.179012 $w=8.1e-08 $l=1.45e-08 $layer=<ENCRYPTED_LAYER_49>
+ $thickness=1e-09 $X=0.7415 $Y=0.2025 $X2=0.756 $Y2=0.2025
r4 130 48 0.0308642 $w=8.1e-08 $l=2.5e-09 $layer=<ENCRYPTED_LAYER_49>
+ $thickness=1e-09 $X=0.7386 $Y=0.2025 $X2=0.7415 $Y2=0.2025
r5 127 125 0.0308642 $w=8.1e-08 $l=2.5e-09 $layer=<ENCRYPTED_LAYER_49>
+ $thickness=1e-09 $X=0.6653 $Y=0.2025 $X2=0.6625 $Y2=0.2025
r6 10 125 0.179012 $w=8.1e-08 $l=1.45e-08 $layer=<ENCRYPTED_LAYER_49>
+ $thickness=1e-09 $X=0.648 $Y=0.2025 $X2=0.6625 $Y2=0.2025
r7 47 10 0.179012 $w=8.1e-08 $l=1.45e-08 $layer=<ENCRYPTED_LAYER_49>
+ $thickness=1e-09 $X=0.6335 $Y=0.2025 $X2=0.648 $Y2=0.2025
r8 126 47 0.0308642 $w=8.1e-08 $l=2.5e-09 $layer=<ENCRYPTED_LAYER_49>
+ $thickness=1e-09 $X=0.6306 $Y=0.2025 $X2=0.6335 $Y2=0.2025
r9 123 121 0.0308642 $w=8.1e-08 $l=2.5e-09 $layer=<ENCRYPTED_LAYER_49>
+ $thickness=1e-09 $X=0.5573 $Y=0.2025 $X2=0.5545 $Y2=0.2025
r10 8 121 0.179012 $w=8.1e-08 $l=1.45e-08 $layer=<ENCRYPTED_LAYER_49>
+ $thickness=1e-09 $X=0.54 $Y=0.2025 $X2=0.5545 $Y2=0.2025
r11 46 8 0.179012 $w=8.1e-08 $l=1.45e-08 $layer=<ENCRYPTED_LAYER_49>
+ $thickness=1e-09 $X=0.5255 $Y=0.2025 $X2=0.54 $Y2=0.2025
r12 122 46 0.0308642 $w=8.1e-08 $l=2.5e-09 $layer=<ENCRYPTED_LAYER_49>
+ $thickness=1e-09 $X=0.5226 $Y=0.2025 $X2=0.5255 $Y2=0.2025
r13 119 117 0.0308642 $w=8.1e-08 $l=2.5e-09 $layer=<ENCRYPTED_LAYER_49>
+ $thickness=1e-09 $X=0.4493 $Y=0.2025 $X2=0.4465 $Y2=0.2025
r14 6 117 0.179012 $w=8.1e-08 $l=1.45e-08 $layer=<ENCRYPTED_LAYER_49>
+ $thickness=1e-09 $X=0.432 $Y=0.2025 $X2=0.4465 $Y2=0.2025
r15 45 6 0.179012 $w=8.1e-08 $l=1.45e-08 $layer=<ENCRYPTED_LAYER_49>
+ $thickness=1e-09 $X=0.4175 $Y=0.2025 $X2=0.432 $Y2=0.2025
r16 118 45 0.0308642 $w=8.1e-08 $l=2.5e-09 $layer=<ENCRYPTED_LAYER_49>
+ $thickness=1e-09 $X=0.4146 $Y=0.2025 $X2=0.4175 $Y2=0.2025
r17 115 113 0.0308642 $w=8.1e-08 $l=2.5e-09 $layer=<ENCRYPTED_LAYER_49>
+ $thickness=1e-09 $X=0.3413 $Y=0.2025 $X2=0.3385 $Y2=0.2025
r18 4 113 0.179012 $w=8.1e-08 $l=1.45e-08 $layer=<ENCRYPTED_LAYER_49>
+ $thickness=1e-09 $X=0.324 $Y=0.2025 $X2=0.3385 $Y2=0.2025
r19 44 4 0.179012 $w=8.1e-08 $l=1.45e-08 $layer=<ENCRYPTED_LAYER_49>
+ $thickness=1e-09 $X=0.3095 $Y=0.2025 $X2=0.324 $Y2=0.2025
r20 114 44 0.0308642 $w=8.1e-08 $l=2.5e-09 $layer=<ENCRYPTED_LAYER_49>
+ $thickness=1e-09 $X=0.3066 $Y=0.2025 $X2=0.3095 $Y2=0.2025
r21 111 109 0.0308642 $w=8.1e-08 $l=2.5e-09 $layer=<ENCRYPTED_LAYER_49>
+ $thickness=1e-09 $X=0.2333 $Y=0.2025 $X2=0.2305 $Y2=0.2025
r22 2 109 0.179012 $w=8.1e-08 $l=1.45e-08 $layer=<ENCRYPTED_LAYER_49>
+ $thickness=1e-09 $X=0.216 $Y=0.2025 $X2=0.2305 $Y2=0.2025
r23 43 2 0.179012 $w=8.1e-08 $l=1.45e-08 $layer=<ENCRYPTED_LAYER_49>
+ $thickness=1e-09 $X=0.2015 $Y=0.2025 $X2=0.216 $Y2=0.2025
r24 110 43 0.0308642 $w=8.1e-08 $l=2.5e-09 $layer=<ENCRYPTED_LAYER_49>
+ $thickness=1e-09 $X=0.1986 $Y=0.2025 $X2=0.2015 $Y2=0.2025
r25 12 106 19.3796 $w=1.8e-08 $l=1.8e-08 $layer=<ENCRYPTED_LAYER_7> $X=0.756
+ $Y=0.2025 $X2=0.756 $Y2=0.234
r26 10 104 19.3796 $w=1.8e-08 $l=1.8e-08 $layer=<ENCRYPTED_LAYER_7> $X=0.648
+ $Y=0.2025 $X2=0.648 $Y2=0.234
r27 8 102 19.3796 $w=1.8e-08 $l=1.8e-08 $layer=<ENCRYPTED_LAYER_7> $X=0.54
+ $Y=0.2025 $X2=0.54 $Y2=0.234
r28 6 100 19.3796 $w=1.8e-08 $l=1.8e-08 $layer=<ENCRYPTED_LAYER_7> $X=0.432
+ $Y=0.2025 $X2=0.432 $Y2=0.234
r29 4 98 19.3796 $w=1.8e-08 $l=1.8e-08 $layer=<ENCRYPTED_LAYER_7> $X=0.324
+ $Y=0.2025 $X2=0.324 $Y2=0.234
r30 2 96 19.3796 $w=1.8e-08 $l=1.8e-08 $layer=<ENCRYPTED_LAYER_7> $X=0.216
+ $Y=0.2025 $X2=0.216 $Y2=0.234
r31 106 107 6.17953 $w=1.8e-08 $l=2.65e-08 $layer=M1 $thickness=3.6e-08
+ $X=0.756 $Y=0.234 $X2=0.7825 $Y2=0.234
r32 105 106 12.5922 $w=1.8e-08 $l=5.4e-08 $layer=M1 $thickness=3.6e-08 $X=0.702
+ $Y=0.234 $X2=0.756 $Y2=0.234
r33 104 105 12.5922 $w=1.8e-08 $l=5.4e-08 $layer=M1 $thickness=3.6e-08 $X=0.648
+ $Y=0.234 $X2=0.702 $Y2=0.234
r34 103 104 12.5922 $w=1.8e-08 $l=5.4e-08 $layer=M1 $thickness=3.6e-08 $X=0.594
+ $Y=0.234 $X2=0.648 $Y2=0.234
r35 102 103 12.5922 $w=1.8e-08 $l=5.4e-08 $layer=M1 $thickness=3.6e-08 $X=0.54
+ $Y=0.234 $X2=0.594 $Y2=0.234
r36 101 102 12.5922 $w=1.8e-08 $l=5.4e-08 $layer=M1 $thickness=3.6e-08 $X=0.486
+ $Y=0.234 $X2=0.54 $Y2=0.234