* Design:	NEURON
* Created:	"Sat Dec 10 2022"
* Vendor:	"Mentor Graphics Corporation"
* Program:	"Calibre xACT 3D"
* Version:	"v2017.4_19.14"
* Corner Name: typical_27
* Nominal Temperature: 25C
* Circuit Temperature: 27C
* 
* Integrated TICER reduction is not enabled.
* SHORT DELAY THRESHOLD: 2e-15
* Fill Mode: NG
* PEX REDUCE CC ABSOLUTE : 1
* PEX REDUCE CC RELATIVE : 0.01
* Delta transform mode : 344834

* .include "NEURON.pex.netlist.pex"

* Start of included file NEURON.pex.netlist.pex

.subckt PM_NEURON%XI4/XI15/NET049 VSS 12 13 19 7 1 2 9 8
c1 1 VSS 0.00723061f $X=0.145 $Y=0.5535
c2 2 VSS 0.00822146f $X=0.253 $Y=0.5535
c3 7 VSS 0.00367001f $X=0.1305 $Y=0.5535
c4 8 VSS 0.0375329f $X=0.2385 $Y=0.5535
c5 9 VSS 0.0122193f $X=0.145 $Y=0.585
r1 8 2 0.154321 $w=8.1e-08 $l=1.25e-08 $layer=<ENCRYPTED_LAYER_48>
+ $thickness=1e-09 $X=0.2385 $Y=0.5535 $X2=0.253 $Y2=0.5535
r2 19 8 0.0308642 $w=8.1e-08 $l=2.5e-09 $layer=<ENCRYPTED_LAYER_48>
+ $thickness=1e-09 $X=0.2356 $Y=0.5535 $X2=0.2385 $Y2=0.5535
r3 2 16 19.3796 $w=1.8e-08 $l=1.8e-08 $layer=<ENCRYPTED_LAYER_7> $X=0.253
+ $Y=0.5535 $X2=0.253 $Y2=0.585
r4 15 16 11.5429 $w=1.8e-08 $l=4.95e-08 $layer=M1 $thickness=3.6e-08 $X=0.2035
+ $Y=0.585 $X2=0.253 $Y2=0.585
r5 14 15 10.4935 $w=1.8e-08 $l=4.5e-08 $layer=M1 $thickness=3.6e-08 $X=0.1585
+ $Y=0.585 $X2=0.2035 $Y2=0.585
r6 9 14 3.14806 $w=1.8e-08 $l=1.35e-08 $layer=M1 $thickness=3.6e-08 $X=0.145
+ $Y=0.585 $X2=0.1585 $Y2=0.585
r7 1 9 19.3796 $w=1.8e-08 $l=1.8e-08 $layer=<ENCRYPTED_LAYER_7> $X=0.145
+ $Y=0.5535 $X2=0.145 $Y2=0.585
r8 13 11 0.0308642 $w=8.1e-08 $l=2.5e-09 $layer=<ENCRYPTED_LAYER_48>
+ $thickness=1e-09 $X=0.1623 $Y=0.5535 $X2=0.1595 $Y2=0.5535
r9 1 11 0.179012 $w=8.1e-08 $l=1.45e-08 $layer=<ENCRYPTED_LAYER_48>
+ $thickness=1e-09 $X=0.145 $Y=0.5535 $X2=0.1595 $Y2=0.5535
r10 7 1 0.179012 $w=8.1e-08 $l=1.45e-08 $layer=<ENCRYPTED_LAYER_48>
+ $thickness=1e-09 $X=0.1305 $Y=0.5535 $X2=0.145 $Y2=0.5535
r11 12 7 0.0308642 $w=8.1e-08 $l=2.5e-09 $layer=<ENCRYPTED_LAYER_48>
+ $thickness=1e-09 $X=0.1276 $Y=0.5535 $X2=0.1305 $Y2=0.5535
.ends

.subckt PM_NEURON%XI4/XI15/XOR VSS 27 31 42 46 59 68 72 24 23 14 20 5 3 4 22 15
+ 12 16 18 1 17 25 26 21 19 13
c1 1 VSS 0.00748757f $X=0.496 $Y=0.486
c2 3 VSS 0.0074696f $X=0.091 $Y=0.4185
c3 4 VSS 0.00656226f $X=0.091 $Y=0.5535
c4 5 VSS 0.0045953f $X=0.253 $Y=0.405
c5 12 VSS 0.0848987f $X=0.496 $Y=0.3635
c6 13 VSS 0.0886339f $X=0.55 $Y=0.486
c7 14 VSS 0.0273271f $X=0.093 $Y=0.5535
c8 15 VSS 0.041097f $X=0.093 $Y=0.4185
c9 16 VSS 0.0394744f $X=0.2385 $Y=0.4185
c10 17 VSS 0.00237722f $X=0.064 $Y=0.387
c11 18 VSS 0.0057716f $X=0.064 $Y=0.585
c12 19 VSS 0.00186408f $X=0.469 $Y=0.387
c13 20 VSS 0.000677144f $X=0.469 $Y=0.423
c14 21 VSS 0.00102267f $X=0.523 $Y=0.423
c15 22 VSS 0.00434687f $X=0.064 $Y=0.405
c16 23 VSS 0.0226095f $X=0.4595 $Y=0.387
c17 24 VSS 0.00058332f $X=0.469 $Y=0.405
c18 25 VSS 0.000781567f $X=0.5115 $Y=0.423
c19 26 VSS 0.00170406f $X=0.523 $Y=0.4675
r1 72 71 0.0308642 $w=8.1e-08 $l=2.5e-09 $layer=<ENCRYPTED_LAYER_48>
+ $thickness=1e-09 $X=0.1083 $Y=0.5535 $X2=0.1055 $Y2=0.5535
r2 14 71 0.154321 $w=8.1e-08 $l=1.25e-08 $layer=<ENCRYPTED_LAYER_48>
+ $thickness=1e-09 $X=0.093 $Y=0.5535 $X2=0.1055 $Y2=0.5535
r3 4 70 19.3796 $w=1.8e-08 $l=1.8e-08 $layer=<ENCRYPTED_LAYER_7> $X=0.091
+ $Y=0.5535 $X2=0.091 $Y2=0.585
r4 69 70 3.14806 $w=1.8e-08 $l=1.35e-08 $layer=M1 $thickness=3.6e-08 $X=0.0775
+ $Y=0.585 $X2=0.091 $Y2=0.585
r5 18 66 3.71668 $w=1.8e-08 $l=2.1e-08 $layer=M1 $thickness=3.6e-08 $X=0.064
+ $Y=0.585 $X2=0.064 $Y2=0.564
r6 18 69 1.96775 $w=1.8e-08 $l=1.35e-08 $layer=M1 $thickness=3.6e-08 $X=0.064
+ $Y=0.585 $X2=0.0775 $Y2=0.585
r7 68 67 0.0308642 $w=8.1e-08 $l=2.5e-09 $layer=<ENCRYPTED_LAYER_49>
+ $thickness=1e-09 $X=0.1083 $Y=0.4185 $X2=0.1055 $Y2=0.4185
r8 15 67 0.154321 $w=8.1e-08 $l=1.25e-08 $layer=<ENCRYPTED_LAYER_49>
+ $thickness=1e-09 $X=0.093 $Y=0.4185 $X2=0.1055 $Y2=0.4185
r9 65 66 4.19742 $w=1.8e-08 $l=1.8e-08 $layer=M1 $thickness=3.6e-08 $X=0.064
+ $Y=0.546 $X2=0.064 $Y2=0.564
r10 64 65 3.49785 $w=1.8e-08 $l=1.5e-08 $layer=M1 $thickness=3.6e-08 $X=0.064
+ $Y=0.531 $X2=0.064 $Y2=0.546
r11 63 64 4.6638 $w=1.8e-08 $l=2e-08 $layer=M1 $thickness=3.6e-08 $X=0.064
+ $Y=0.511 $X2=0.064 $Y2=0.531
r12 62 63 3.14806 $w=1.8e-08 $l=1.35e-08 $layer=M1 $thickness=3.6e-08 $X=0.064
+ $Y=0.4975 $X2=0.064 $Y2=0.511
r13 61 62 2.68168 $w=1.8e-08 $l=1.15e-08 $layer=M1 $thickness=3.6e-08 $X=0.064
+ $Y=0.486 $X2=0.064 $Y2=0.4975
r14 60 61 9.44419 $w=1.8e-08 $l=4.05e-08 $layer=M1 $thickness=3.6e-08 $X=0.064
+ $Y=0.4455 $X2=0.064 $Y2=0.486
r15 22 60 9.44419 $w=1.8e-08 $l=4.05e-08 $layer=M1 $thickness=3.6e-08 $X=0.064
+ $Y=0.405 $X2=0.064 $Y2=0.4455
r16 16 5 0.154321 $w=8.1e-08 $l=1.25e-08 $layer=<ENCRYPTED_LAYER_49>
+ $thickness=1e-09 $X=0.2385 $Y=0.4185 $X2=0.253 $Y2=0.405
r17 59 16 0.0308642 $w=8.1e-08 $l=2.5e-09 $layer=<ENCRYPTED_LAYER_49>
+ $thickness=1e-09 $X=0.2356 $Y=0.4185 $X2=0.2385 $Y2=0.4185
r18 3 55 19.3796 $w=1.8e-08 $l=1.8e-08 $layer=<ENCRYPTED_LAYER_7> $X=0.091
+ $Y=0.4185 $X2=0.091 $Y2=0.387
r19 17 54 1.49895 $w=1.8e-08 $l=1.35e-08 $layer=M1 $thickness=3.6e-08 $X=0.064
+ $Y=0.387 $X2=0.0775 $Y2=0.387
r20 17 22 2.5483 $w=1.8e-08 $l=1.8e-08 $layer=M1 $thickness=3.6e-08 $X=0.064
+ $Y=0.387 $X2=0.064 $Y2=0.405
r21 5 51 19.3796 $w=1.8e-08 $l=1.8e-08 $layer=<ENCRYPTED_LAYER_7> $X=0.253
+ $Y=0.405 $X2=0.253 $Y2=0.387
r22 54 55 3.14806 $w=1.8e-08 $l=1.35e-08 $layer=M1 $thickness=3.6e-08 $X=0.0775
+ $Y=0.387 $X2=0.091 $Y2=0.387
r23 53 55 3.14806 $w=1.8e-08 $l=1.35e-08 $layer=M1 $thickness=3.6e-08 $X=0.1045
+ $Y=0.387 $X2=0.091 $Y2=0.387
r24 51 52 21.5701 $w=1.8e-08 $l=9.25e-08 $layer=M1 $thickness=3.6e-08 $X=0.253
+ $Y=0.387 $X2=0.3455 $Y2=0.387
r25 50 51 17.839 $w=1.8e-08 $l=7.65e-08 $layer=M1 $thickness=3.6e-08 $X=0.1765
+ $Y=0.387 $X2=0.253 $Y2=0.387
r26 50 53 16.7897 $w=1.8e-08 $l=7.2e-08 $layer=M1 $thickness=3.6e-08 $X=0.1765
+ $Y=0.387 $X2=0.1045 $Y2=0.387
r27 49 52 22.9692 $w=1.8e-08 $l=9.85e-08 $layer=M1 $thickness=3.6e-08 $X=0.444
+ $Y=0.387 $X2=0.3455 $Y2=0.387
r28 23 49 3.61444 $w=1.8e-08 $l=1.55e-08 $layer=M1 $thickness=3.6e-08 $X=0.4595
+ $Y=0.387 $X2=0.444 $Y2=0.387
r29 19 24 2.5483 $w=1.8e-08 $l=1.8e-08 $layer=M1 $thickness=3.6e-08 $X=0.469
+ $Y=0.387 $X2=0.469 $Y2=0.405
r30 19 23 0.56619 $w=1.8e-08 $l=9.5e-09 $layer=M1 $thickness=3.6e-08 $X=0.469
+ $Y=0.387 $X2=0.4595 $Y2=0.387
r31 20 48 4.06404 $w=1.8e-08 $l=2.45e-08 $layer=M1 $thickness=3.6e-08 $X=0.469
+ $Y=0.423 $X2=0.4935 $Y2=0.423
r32 20 24 2.5483 $w=1.8e-08 $l=1.8e-08 $layer=M1 $thickness=3.6e-08 $X=0.469
+ $Y=0.423 $X2=0.469 $Y2=0.405
r33 25 48 4.19742 $w=1.8e-08 $l=1.8e-08 $layer=M1 $thickness=3.6e-08 $X=0.5115
+ $Y=0.423 $X2=0.4935 $Y2=0.423
r34 21 39 3.48106 $w=1.8e-08 $l=2.2e-08 $layer=M1 $thickness=3.6e-08 $X=0.523
+ $Y=0.423 $X2=0.523 $Y2=0.445
r35 21 25 1.03257 $w=1.8e-08 $l=1.15e-08 $layer=M1 $thickness=3.6e-08 $X=0.523
+ $Y=0.423 $X2=0.5115 $Y2=0.423
r36 46 45 14.6259 $w=2e-08 $l=4.3e-08 $layer=<ENCRYPTED_LAYER_23>
+ $thickness=5.6e-08 $X=0.55 $Y=0.5535 $X2=0.55 $Y2=0.5105
r37 44 45 2.7211 $w=2e-08 $l=8e-09 $layer=<ENCRYPTED_LAYER_23>
+ $thickness=5.6e-08 $X=0.55 $Y=0.5025 $X2=0.55 $Y2=0.5105
r38 42 43 14.6259 $w=2e-08 $l=4.3e-08 $layer=<ENCRYPTED_LAYER_23>
+ $thickness=5.6e-08 $X=0.55 $Y=0.4185 $X2=0.55 $Y2=0.4615
r39 40 43 2.7211 $w=2e-08 $l=8e-09 $layer=<ENCRYPTED_LAYER_23>
+ $thickness=5.6e-08 $X=0.55 $Y=0.4695 $X2=0.55 $Y2=0.4615
r40 13 35 6.54019 $w=2.09524e-08 $layer=<ENCRYPTED_LAYER_23>
+ $thickness=5.21905e-08 $X=0.55 $Y=0.486 $X2=0.55 $Y2=0.486
r41 13 40 5.79936 $w=2e-08 $l=1.65e-08 $layer=<ENCRYPTED_LAYER_23>
+ $thickness=5.6e-08 $X=0.55 $Y=0.486 $X2=0.55 $Y2=0.4695
r42 13 44 5.79936 $w=2e-08 $l=1.65e-08 $layer=<ENCRYPTED_LAYER_23>
+ $thickness=5.6e-08 $X=0.55 $Y=0.486 $X2=0.55 $Y2=0.5025
r43 26 37 4.31401 $w=1.8e-08 $l=1.85e-08 $layer=M1 $thickness=3.6e-08 $X=0.523
+ $Y=0.4675 $X2=0.523 $Y2=0.486
r44 26 39 5.24677 $w=1.8e-08 $l=2.25e-08 $layer=M1 $thickness=3.6e-08 $X=0.523
+ $Y=0.4675 $X2=0.523 $Y2=0.445
r45 34 35 12.6539 $w=2.2e-08 $l=2.7e-08 $layer=LIG $thickness=4.8e-08 $X=0.523
+ $Y=0.486 $X2=0.55 $Y2=0.486
r46 34 37 19.3796 $w=1.8e-08 $l=1.8e-08 $layer=<ENCRYPTED_LAYER_4> $X=0.523
+ $Y=0.486 $X2=0.523 $Y2=0.486
r47 1 29 6.54019 $w=2.09524e-08 $layer=<ENCRYPTED_LAYER_23>
+ $thickness=5.21905e-08 $X=0.496 $Y=0.486 $X2=0.496 $Y2=0.486
r48 1 34 12.6539 $w=2.2e-08 $l=2.7e-08 $layer=LIG $thickness=4.8e-08 $X=0.496
+ $Y=0.486 $X2=0.523 $Y2=0.486
r49 31 30 16.4967 $w=2e-08 $l=4.85e-08 $layer=<ENCRYPTED_LAYER_23>
+ $thickness=5.6e-08 $X=0.496 $Y=0.5535 $X2=0.496 $Y2=0.505
r50 29 30 6.6497 $w=2e-08 $l=1.9e-08 $layer=<ENCRYPTED_LAYER_23>
+ $thickness=5.6e-08 $X=0.496 $Y=0.486 $X2=0.496 $Y2=0.505
r51 28 29 6.6497 $w=2e-08 $l=1.9e-08 $layer=<ENCRYPTED_LAYER_23>
+ $thickness=5.6e-08 $X=0.496 $Y=0.467 $X2=0.496 $Y2=0.486
r52 27 28 16.4967 $w=2e-08 $l=4.85e-08 $layer=<ENCRYPTED_LAYER_23>
+ $thickness=5.6e-08 $X=0.496 $Y=0.4185 $X2=0.496 $Y2=0.467
r53 27 12 18.7076 $w=2e-08 $l=5.5e-08 $layer=<ENCRYPTED_LAYER_23>
+ $thickness=5.6e-08 $X=0.496 $Y=0.4185 $X2=0.496 $Y2=0.3635
r54 4 14 1e-05 $l=2e-09 $X=0.091 $Y=0.5535 $X2=0.093 $Y2=0.5535
r55 3 15 1e-05 $l=2e-09 $X=0.091 $Y=0.4185 $X2=0.093 $Y2=0.4185
.ends

.subckt PM_NEURON%XI1/XI1/XI3/NET049 VSS 12 13 19 8 2 7 9 1
c1 1 VSS 0.00722493f $X=1.603 $Y=0.5535
c2 2 VSS 0.00818831f $X=1.711 $Y=0.5535
c3 7 VSS 0.00362601f $X=1.5885 $Y=0.5535
c4 8 VSS 0.0368383f $X=1.6965 $Y=0.5535
c5 9 VSS 0.0124091f $X=1.603 $Y=0.585
r1 8 2 0.154321 $w=8.1e-08 $l=1.25e-08 $layer=<ENCRYPTED_LAYER_48>
+ $thickness=1e-09 $X=1.6965 $Y=0.5535 $X2=1.711 $Y2=0.5535
r2 19 8 0.0308642 $w=8.1e-08 $l=2.5e-09 $layer=<ENCRYPTED_LAYER_48>
+ $thickness=1e-09 $X=1.6936 $Y=0.5535 $X2=1.6965 $Y2=0.5535
r3 2 16 19.3796 $w=1.8e-08 $l=1.8e-08 $layer=<ENCRYPTED_LAYER_7> $X=1.711
+ $Y=0.5535 $X2=1.711 $Y2=0.585
r4 15 16 11.5429 $w=1.8e-08 $l=4.95e-08 $layer=M1 $thickness=3.6e-08 $X=1.6615
+ $Y=0.585 $X2=1.711 $Y2=0.585
r5 14 15 10.4935 $w=1.8e-08 $l=4.5e-08 $layer=M1 $thickness=3.6e-08 $X=1.6165
+ $Y=0.585 $X2=1.6615 $Y2=0.585
r6 9 14 3.14806 $w=1.8e-08 $l=1.35e-08 $layer=M1 $thickness=3.6e-08 $X=1.603
+ $Y=0.585 $X2=1.6165 $Y2=0.585
r7 1 9 19.3796 $w=1.8e-08 $l=1.8e-08 $layer=<ENCRYPTED_LAYER_7> $X=1.603
+ $Y=0.5535 $X2=1.603 $Y2=0.585
r8 13 11 0.0308642 $w=8.1e-08 $l=2.5e-09 $layer=<ENCRYPTED_LAYER_48>
+ $thickness=1e-09 $X=1.6203 $Y=0.5535 $X2=1.6175 $Y2=0.5535
r9 1 11 0.179012 $w=8.1e-08 $l=1.45e-08 $layer=<ENCRYPTED_LAYER_48>
+ $thickness=1e-09 $X=1.603 $Y=0.5535 $X2=1.6175 $Y2=0.5535
r10 7 1 0.179012 $w=8.1e-08 $l=1.45e-08 $layer=<ENCRYPTED_LAYER_48>
+ $thickness=1e-09 $X=1.5885 $Y=0.5535 $X2=1.603 $Y2=0.5535
r11 12 7 0.0308642 $w=8.1e-08 $l=2.5e-09 $layer=<ENCRYPTED_LAYER_48>
+ $thickness=1e-09 $X=1.5856 $Y=0.5535 $X2=1.5885 $Y2=0.5535
.ends

.subckt PM_NEURON%XI1/XI1/XI2/NET049 VSS 12 13 19 8 2 7 9 1
c1 1 VSS 0.00722484f $X=1.009 $Y=0.5535
c2 2 VSS 0.00821405f $X=1.117 $Y=0.5535
c3 7 VSS 0.00367014f $X=0.9945 $Y=0.5535
c4 8 VSS 0.0375209f $X=1.1025 $Y=0.5535
c5 9 VSS 0.0122909f $X=1.009 $Y=0.585
r1 8 2 0.154321 $w=8.1e-08 $l=1.25e-08 $layer=<ENCRYPTED_LAYER_48>
+ $thickness=1e-09 $X=1.1025 $Y=0.5535 $X2=1.117 $Y2=0.5535
r2 19 8 0.0308642 $w=8.1e-08 $l=2.5e-09 $layer=<ENCRYPTED_LAYER_48>
+ $thickness=1e-09 $X=1.0996 $Y=0.5535 $X2=1.1025 $Y2=0.5535
r3 2 16 19.3796 $w=1.8e-08 $l=1.8e-08 $layer=<ENCRYPTED_LAYER_7> $X=1.117
+ $Y=0.5535 $X2=1.117 $Y2=0.585
r4 15 16 11.5429 $w=1.8e-08 $l=4.95e-08 $layer=M1 $thickness=3.6e-08 $X=1.0675
+ $Y=0.585 $X2=1.117 $Y2=0.585
r5 14 15 10.4935 $w=1.8e-08 $l=4.5e-08 $layer=M1 $thickness=3.6e-08 $X=1.0225
+ $Y=0.585 $X2=1.0675 $Y2=0.585
r6 9 14 3.14806 $w=1.8e-08 $l=1.35e-08 $layer=M1 $thickness=3.6e-08 $X=1.009
+ $Y=0.585 $X2=1.0225 $Y2=0.585
r7 1 9 19.3796 $w=1.8e-08 $l=1.8e-08 $layer=<ENCRYPTED_LAYER_7> $X=1.009
+ $Y=0.5535 $X2=1.009 $Y2=0.585
r8 13 11 0.0308642 $w=8.1e-08 $l=2.5e-09 $layer=<ENCRYPTED_LAYER_48>
+ $thickness=1e-09 $X=1.0263 $Y=0.5535 $X2=1.0235 $Y2=0.5535
r9 1 11 0.179012 $w=8.1e-08 $l=1.45e-08 $layer=<ENCRYPTED_LAYER_48>
+ $thickness=1e-09 $X=1.009 $Y=0.5535 $X2=1.0235 $Y2=0.5535
r10 7 1 0.179012 $w=8.1e-08 $l=1.45e-08 $layer=<ENCRYPTED_LAYER_48>
+ $thickness=1e-09 $X=0.9945 $Y=0.5535 $X2=1.009 $Y2=0.5535
r11 12 7 0.0308642 $w=8.1e-08 $l=2.5e-09 $layer=<ENCRYPTED_LAYER_48>
+ $thickness=1e-09 $X=0.9916 $Y=0.5535 $X2=0.9945 $Y2=0.5535
.ends

.subckt PM_NEURON%XI1/XI0/XI2/XOR VSS 27 31 42 46 59 68 72 12 5 22 16 3 4 20 18
+ 1 25 26 23 17 24 14 15 13 19 21
c1 1 VSS 0.00813138f $X=1.36 $Y=1.107
c2 3 VSS 0.00798555f $X=0.955 $Y=1.0395
c3 4 VSS 0.00720367f $X=0.955 $Y=1.1745
c4 5 VSS 0.005229f $X=1.117 $Y=1.026
c5 12 VSS 0.0843374f $X=1.36 $Y=0.9845
c6 13 VSS 0.0878251f $X=1.414 $Y=1.107
c7 14 VSS 0.0237978f $X=0.957 $Y=1.1745
c8 15 VSS 0.039459f $X=0.957 $Y=1.0395
c9 16 VSS 0.0379655f $X=1.1025 $Y=1.0395
c10 17 VSS 0.00217587f $X=0.928 $Y=1.008
c11 18 VSS 0.00589087f $X=0.928 $Y=1.206
c12 19 VSS 0.00386158f $X=1.333 $Y=1.008
c13 20 VSS 0.00110495f $X=1.333 $Y=1.044
c14 21 VSS 0.00090725f $X=1.387 $Y=1.044
c15 22 VSS 0.00379351f $X=0.928 $Y=1.026
c16 23 VSS 0.0204388f $X=1.3235 $Y=1.008
c17 24 VSS 0.00101493f $X=1.333 $Y=1.026
c18 25 VSS 0.00139401f $X=1.3755 $Y=1.044
c19 26 VSS 0.00312124f $X=1.387 $Y=1.0885
r1 72 71 0.0308642 $w=8.1e-08 $l=2.5e-09 $layer=<ENCRYPTED_LAYER_48>
+ $thickness=1e-09 $X=0.9723 $Y=1.1745 $X2=0.9695 $Y2=1.1745
r2 14 71 0.154321 $w=8.1e-08 $l=1.25e-08 $layer=<ENCRYPTED_LAYER_48>
+ $thickness=1e-09 $X=0.957 $Y=1.1745 $X2=0.9695 $Y2=1.1745
r3 4 70 19.3796 $w=1.8e-08 $l=1.8e-08 $layer=<ENCRYPTED_LAYER_7> $X=0.955
+ $Y=1.1745 $X2=0.955 $Y2=1.206
r4 69 70 3.14806 $w=1.8e-08 $l=1.35e-08 $layer=M1 $thickness=3.6e-08 $X=0.9415
+ $Y=1.206 $X2=0.955 $Y2=1.206
r5 18 66 3.71668 $w=1.8e-08 $l=2.1e-08 $layer=M1 $thickness=3.6e-08 $X=0.928
+ $Y=1.206 $X2=0.928 $Y2=1.185
r6 18 69 1.96775 $w=1.8e-08 $l=1.35e-08 $layer=M1 $thickness=3.6e-08 $X=0.928
+ $Y=1.206 $X2=0.9415 $Y2=1.206
r7 68 67 0.0308642 $w=8.1e-08 $l=2.5e-09 $layer=<ENCRYPTED_LAYER_49>
+ $thickness=1e-09 $X=0.9723 $Y=1.0395 $X2=0.9695 $Y2=1.0395
r8 15 67 0.154321 $w=8.1e-08 $l=1.25e-08 $layer=<ENCRYPTED_LAYER_49>
+ $thickness=1e-09 $X=0.957 $Y=1.0395 $X2=0.9695 $Y2=1.0395
r9 65 66 4.19742 $w=1.8e-08 $l=1.8e-08 $layer=M1 $thickness=3.6e-08 $X=0.928
+ $Y=1.167 $X2=0.928 $Y2=1.185
r10 64 65 3.49785 $w=1.8e-08 $l=1.5e-08 $layer=M1 $thickness=3.6e-08 $X=0.928
+ $Y=1.152 $X2=0.928 $Y2=1.167
r11 63 64 4.6638 $w=1.8e-08 $l=2e-08 $layer=M1 $thickness=3.6e-08 $X=0.928
+ $Y=1.132 $X2=0.928 $Y2=1.152
r12 62 63 3.14806 $w=1.8e-08 $l=1.35e-08 $layer=M1 $thickness=3.6e-08 $X=0.928
+ $Y=1.1185 $X2=0.928 $Y2=1.132
r13 61 62 2.68168 $w=1.8e-08 $l=1.15e-08 $layer=M1 $thickness=3.6e-08 $X=0.928
+ $Y=1.107 $X2=0.928 $Y2=1.1185
r14 60 61 9.44419 $w=1.8e-08 $l=4.05e-08 $layer=M1 $thickness=3.6e-08 $X=0.928
+ $Y=1.0665 $X2=0.928 $Y2=1.107
r15 22 60 9.44419 $w=1.8e-08 $l=4.05e-08 $layer=M1 $thickness=3.6e-08 $X=0.928
+ $Y=1.026 $X2=0.928 $Y2=1.0665
r16 16 5 0.154321 $w=8.1e-08 $l=1.25e-08 $layer=<ENCRYPTED_LAYER_49>
+ $thickness=1e-09 $X=1.1025 $Y=1.0395 $X2=1.117 $Y2=1.026
r17 59 16 0.0308642 $w=8.1e-08 $l=2.5e-09 $layer=<ENCRYPTED_LAYER_49>
+ $thickness=1e-09 $X=1.0996 $Y=1.0395 $X2=1.1025 $Y2=1.0395
r18 3 55 19.3796 $w=1.8e-08 $l=1.8e-08 $layer=<ENCRYPTED_LAYER_7> $X=0.955
+ $Y=1.0395 $X2=0.955 $Y2=1.008
r19 17 54 1.49895 $w=1.8e-08 $l=1.35e-08 $layer=M1 $thickness=3.6e-08 $X=0.928
+ $Y=1.008 $X2=0.9415 $Y2=1.008
r20 17 22 2.5483 $w=1.8e-08 $l=1.8e-08 $layer=M1 $thickness=3.6e-08 $X=0.928
+ $Y=1.008 $X2=0.928 $Y2=1.026
r21 5 51 19.3796 $w=1.8e-08 $l=1.8e-08 $layer=<ENCRYPTED_LAYER_7> $X=1.117
+ $Y=1.026 $X2=1.117 $Y2=1.008
r22 54 55 3.14806 $w=1.8e-08 $l=1.35e-08 $layer=M1 $thickness=3.6e-08 $X=0.9415
+ $Y=1.008 $X2=0.955 $Y2=1.008
r23 53 55 3.14806 $w=1.8e-08 $l=1.35e-08 $layer=M1 $thickness=3.6e-08 $X=0.9685
+ $Y=1.008 $X2=0.955 $Y2=1.008
r24 51 52 21.5701 $w=1.8e-08 $l=9.25e-08 $layer=M1 $thickness=3.6e-08 $X=1.117
+ $Y=1.008 $X2=1.2095 $Y2=1.008
r25 50 51 17.839 $w=1.8e-08 $l=7.65e-08 $layer=M1 $thickness=3.6e-08 $X=1.0405
+ $Y=1.008 $X2=1.117 $Y2=1.008
r26 50 53 16.7897 $w=1.8e-08 $l=7.2e-08 $layer=M1 $thickness=3.6e-08 $X=1.0405
+ $Y=1.008 $X2=0.9685 $Y2=1.008
r27 49 52 22.9692 $w=1.8e-08 $l=9.85e-08 $layer=M1 $thickness=3.6e-08 $X=1.308
+ $Y=1.008 $X2=1.2095 $Y2=1.008
r28 23 49 3.61444 $w=1.8e-08 $l=1.55e-08 $layer=M1 $thickness=3.6e-08 $X=1.3235
+ $Y=1.008 $X2=1.308 $Y2=1.008
r29 19 24 2.5483 $w=1.8e-08 $l=1.8e-08 $layer=M1 $thickness=3.6e-08 $X=1.333
+ $Y=1.008 $X2=1.333 $Y2=1.026
r30 19 23 0.56619 $w=1.8e-08 $l=9.5e-09 $layer=M1 $thickness=3.6e-08 $X=1.333
+ $Y=1.008 $X2=1.3235 $Y2=1.008
r31 20 48 4.06404 $w=1.8e-08 $l=2.45e-08 $layer=M1 $thickness=3.6e-08 $X=1.333
+ $Y=1.044 $X2=1.3575 $Y2=1.044
r32 20 24 2.5483 $w=1.8e-08 $l=1.8e-08 $layer=M1 $thickness=3.6e-08 $X=1.333
+ $Y=1.044 $X2=1.333 $Y2=1.026
r33 25 48 4.19742 $w=1.8e-08 $l=1.8e-08 $layer=M1 $thickness=3.6e-08 $X=1.3755
+ $Y=1.044 $X2=1.3575 $Y2=1.044
r34 21 39 3.48106 $w=1.8e-08 $l=2.2e-08 $layer=M1 $thickness=3.6e-08 $X=1.387
+ $Y=1.044 $X2=1.387 $Y2=1.066
r35 21 25 1.03257 $w=1.8e-08 $l=1.15e-08 $layer=M1 $thickness=3.6e-08 $X=1.387
+ $Y=1.044 $X2=1.3755 $Y2=1.044
r36 46 45 14.6259 $w=2e-08 $l=4.3e-08 $layer=<ENCRYPTED_LAYER_23>
+ $thickness=5.6e-08 $X=1.414 $Y=1.1745 $X2=1.414 $Y2=1.1315
r37 44 45 2.7211 $w=2e-08 $l=8e-09 $layer=<ENCRYPTED_LAYER_23>
+ $thickness=5.6e-08 $X=1.414 $Y=1.1235 $X2=1.414 $Y2=1.1315
r38 42 43 14.6259 $w=2e-08 $l=4.3e-08 $layer=<ENCRYPTED_LAYER_23>
+ $thickness=5.6e-08 $X=1.414 $Y=1.0395 $X2=1.414 $Y2=1.0825
r39 40 43 2.7211 $w=2e-08 $l=8e-09 $layer=<ENCRYPTED_LAYER_23>
+ $thickness=5.6e-08 $X=1.414 $Y=1.0905 $X2=1.414 $Y2=1.0825
r40 13 35 6.54019 $w=2.09524e-08 $layer=<ENCRYPTED_LAYER_23>
+ $thickness=5.21905e-08 $X=1.414 $Y=1.107 $X2=1.414 $Y2=1.107
r41 13 40 5.79936 $w=2e-08 $l=1.65e-08 $layer=<ENCRYPTED_LAYER_23>
+ $thickness=5.6e-08 $X=1.414 $Y=1.107 $X2=1.414 $Y2=1.0905
r42 13 44 5.79936 $w=2e-08 $l=1.65e-08 $layer=<ENCRYPTED_LAYER_23>
+ $thickness=5.6e-08 $X=1.414 $Y=1.107 $X2=1.414 $Y2=1.1235
r43 26 37 4.31401 $w=1.8e-08 $l=1.85e-08 $layer=M1 $thickness=3.6e-08 $X=1.387
+ $Y=1.0885 $X2=1.387 $Y2=1.107
r44 26 39 5.24677 $w=1.8e-08 $l=2.25e-08 $layer=M1 $thickness=3.6e-08 $X=1.387
+ $Y=1.0885 $X2=1.387 $Y2=1.066
r45 34 35 12.6539 $w=2.2e-08 $l=2.7e-08 $layer=LIG $thickness=4.8e-08 $X=1.387
+ $Y=1.107 $X2=1.414 $Y2=1.107
r46 34 37 19.3796 $w=1.8e-08 $l=1.8e-08 $layer=<ENCRYPTED_LAYER_4> $X=1.387
+ $Y=1.107 $X2=1.387 $Y2=1.107
r47 1 29 6.54019 $w=2.09524e-08 $layer=<ENCRYPTED_LAYER_23>
+ $thickness=5.21905e-08 $X=1.36 $Y=1.107 $X2=1.36 $Y2=1.107
r48 1 34 12.6539 $w=2.2e-08 $l=2.7e-08 $layer=LIG $thickness=4.8e-08 $X=1.36
+ $Y=1.107 $X2=1.387 $Y2=1.107
r49 31 30 16.4967 $w=2e-08 $l=4.85e-08 $layer=<ENCRYPTED_LAYER_23>
+ $thickness=5.6e-08 $X=1.36 $Y=1.1745 $X2=1.36 $Y2=1.126
r50 29 30 6.6497 $w=2e-08 $l=1.9e-08 $layer=<ENCRYPTED_LAYER_23>
+ $thickness=5.6e-08 $X=1.36 $Y=1.107 $X2=1.36 $Y2=1.126
r51 28 29 6.6497 $w=2e-08 $l=1.9e-08 $layer=<ENCRYPTED_LAYER_23>
+ $thickness=5.6e-08 $X=1.36 $Y=1.088 $X2=1.36 $Y2=1.107
r52 27 28 16.4967 $w=2e-08 $l=4.85e-08 $layer=<ENCRYPTED_LAYER_23>
+ $thickness=5.6e-08 $X=1.36 $Y=1.0395 $X2=1.36 $Y2=1.088
r53 27 12 18.7076 $w=2e-08 $l=5.5e-08 $layer=<ENCRYPTED_LAYER_23>
+ $thickness=5.6e-08 $X=1.36 $Y=1.0395 $X2=1.36 $Y2=0.9845
r54 4 14 1e-05 $l=2e-09 $X=0.955 $Y=1.1745 $X2=0.957 $Y2=1.1745
r55 3 15 1e-05 $l=2e-09 $X=0.955 $Y=1.0395 $X2=0.957 $Y2=1.0395
.ends

.subckt PM_NEURON%XI1/XI1/XI3/NET045 VSS 18 24 46 49 50 10 4 3 16 17 15 14 11 1
+ 9 13 12
c1 1 VSS 0.00277646f $X=1.576 $Y=0.486
c2 3 VSS 0.0105725f $X=1.8065 $Y=0.5535
c3 4 VSS 0.00713285f $X=1.873 $Y=0.405
c4 9 VSS 0.0509501f $X=1.576 $Y=0.3635
c5 10 VSS 0.0377214f $X=1.821 $Y=0.5535
c6 11 VSS 0.00368511f $X=1.8585 $Y=0.405
c7 12 VSS 0.000713784f $X=1.576 $Y=0.423
c8 13 VSS 0.000759046f $X=1.806 $Y=0.423
c9 14 VSS 0.00105821f $X=1.576 $Y=0.473
c10 15 VSS 0.00407483f $X=1.5895 $Y=0.423
c11 16 VSS 0.00124503f $X=1.806 $Y=0.445
c12 17 VSS 0.00182819f $X=1.826 $Y=0.423
r1 50 48 0.0462963 $w=5.4e-08 $l=2.5e-09 $layer=<ENCRYPTED_LAYER_49>
+ $thickness=1e-09 $X=1.8903 $Y=0.405 $X2=1.8875 $Y2=0.405
r2 4 48 0.268519 $w=5.4e-08 $l=1.45e-08 $layer=<ENCRYPTED_LAYER_49>
+ $thickness=1e-09 $X=1.873 $Y=0.405 $X2=1.8875 $Y2=0.405
r3 11 4 0.268519 $w=5.4e-08 $l=1.45e-08 $layer=<ENCRYPTED_LAYER_49>
+ $thickness=1e-09 $X=1.8585 $Y=0.405 $X2=1.873 $Y2=0.405
r4 49 11 0.0462963 $w=5.4e-08 $l=2.5e-09 $layer=<ENCRYPTED_LAYER_49>
+ $thickness=1e-09 $X=1.8556 $Y=0.405 $X2=1.8585 $Y2=0.405
r5 46 45 0.0308642 $w=8.1e-08 $l=2.5e-09 $layer=<ENCRYPTED_LAYER_48>
+ $thickness=1e-09 $X=1.8363 $Y=0.5535 $X2=1.8335 $Y2=0.5535
r6 10 45 0.154321 $w=8.1e-08 $l=1.25e-08 $layer=<ENCRYPTED_LAYER_48>
+ $thickness=1e-09 $X=1.821 $Y=0.5535 $X2=1.8335 $Y2=0.5535
r7 4 40 19.3796 $w=1.8e-08 $l=1.8e-08 $layer=<ENCRYPTED_LAYER_7> $X=1.873
+ $Y=0.405 $X2=1.8695 $Y2=0.423
r8 3 35 19.3796 $w=1.8e-08 $l=1.8e-08 $layer=<ENCRYPTED_LAYER_7> $X=1.8065
+ $Y=0.5535 $X2=1.806 $Y2=0.528
r9 39 40 2.3319 $w=1.8e-08 $l=1e-08 $layer=M1 $thickness=3.6e-08 $X=1.8595
+ $Y=0.423 $X2=1.8695 $Y2=0.423
r10 38 39 3.14806 $w=1.8e-08 $l=1.35e-08 $layer=M1 $thickness=3.6e-08 $X=1.846
+ $Y=0.423 $X2=1.8595 $Y2=0.423
r11 17 38 4.6638 $w=1.8e-08 $l=2e-08 $layer=M1 $thickness=3.6e-08 $X=1.826
+ $Y=0.423 $X2=1.846 $Y2=0.423
r12 34 35 7.57867 $w=1.8e-08 $l=3.25e-08 $layer=M1 $thickness=3.6e-08 $X=1.806
+ $Y=0.4955 $X2=1.806 $Y2=0.528
r13 33 34 7.46207 $w=1.8e-08 $l=3.2e-08 $layer=M1 $thickness=3.6e-08 $X=1.806
+ $Y=0.4635 $X2=1.806 $Y2=0.4955
r14 16 33 4.31401 $w=1.8e-08 $l=1.85e-08 $layer=M1 $thickness=3.6e-08 $X=1.806
+ $Y=0.445 $X2=1.806 $Y2=0.4635
r15 13 32 3.60008 $w=1.8e-08 $l=2.05e-08 $layer=M1 $thickness=3.6e-08 $X=1.806
+ $Y=0.423 $X2=1.7855 $Y2=0.423
r16 13 16 3.94987 $w=1.8e-08 $l=2.2e-08 $layer=M1 $thickness=3.6e-08 $X=1.806
+ $Y=0.423 $X2=1.806 $Y2=0.445
r17 13 17 3.48349 $w=1.8e-08 $l=2e-08 $layer=M1 $thickness=3.6e-08 $X=1.806
+ $Y=0.423 $X2=1.826 $Y2=0.423
r18 31 32 18.422 $w=1.8e-08 $l=7.9e-08 $layer=M1 $thickness=3.6e-08 $X=1.7065
+ $Y=0.423 $X2=1.7855 $Y2=0.423
r19 30 31 17.839 $w=1.8e-08 $l=7.65e-08 $layer=M1 $thickness=3.6e-08 $X=1.63
+ $Y=0.423 $X2=1.7065 $Y2=0.423
r20 29 30 5.24677 $w=1.8e-08 $l=2.25e-08 $layer=M1 $thickness=3.6e-08 $X=1.6075
+ $Y=0.423 $X2=1.63 $Y2=0.423
r21 15 29 4.19742 $w=1.8e-08 $l=1.8e-08 $layer=M1 $thickness=3.6e-08 $X=1.5895
+ $Y=0.423 $X2=1.6075 $Y2=0.423
r22 12 28 4.76361 $w=1.8e-08 $l=2.75e-08 $layer=M1 $thickness=3.6e-08 $X=1.576
+ $Y=0.423 $X2=1.576 $Y2=0.4505
r23 12 15 1.49895 $w=1.8e-08 $l=1.35e-08 $layer=M1 $thickness=3.6e-08 $X=1.576
+ $Y=0.423 $X2=1.5895 $Y2=0.423
r24 14 26 3.03147 $w=1.8e-08 $l=1.3e-08 $layer=M1 $thickness=3.6e-08 $X=1.576
+ $Y=0.473 $X2=1.576 $Y2=0.486
r25 14 28 5.24677 $w=1.8e-08 $l=2.25e-08 $layer=M1 $thickness=3.6e-08 $X=1.576
+ $Y=0.473 $X2=1.576 $Y2=0.4505
r26 1 21 10.4265 $w=2.1e-08 $layer=LIG $thickness=5.2e-08 $X=1.576 $Y=0.486
+ $X2=1.576 $Y2=0.486
r27 1 26 19.3796 $w=1.8e-08 $l=1.8e-08 $layer=<ENCRYPTED_LAYER_4> $X=1.576
+ $Y=0.486 $X2=1.576 $Y2=0.486
r28 24 23 14.6259 $w=2e-08 $l=4.3e-08 $layer=<ENCRYPTED_LAYER_23>
+ $thickness=5.6e-08 $X=1.576 $Y=0.5535 $X2=1.576 $Y2=0.5105
r29 22 23 2.7211 $w=2e-08 $l=8e-09 $layer=<ENCRYPTED_LAYER_23>
+ $thickness=5.6e-08 $X=1.576 $Y=0.5025 $X2=1.576 $Y2=0.5105
r30 21 22 5.79936 $w=2e-08 $l=1.65e-08 $layer=<ENCRYPTED_LAYER_23>
+ $thickness=5.6e-08 $X=1.576 $Y=0.486 $X2=1.576 $Y2=0.5025
r31 20 21 5.79936 $w=2e-08 $l=1.65e-08 $layer=<ENCRYPTED_LAYER_23>
+ $thickness=5.6e-08 $X=1.576 $Y=0.4695 $X2=1.576 $Y2=0.486
r32 19 20 2.7211 $w=2e-08 $l=8e-09 $layer=<ENCRYPTED_LAYER_23>
+ $thickness=5.6e-08 $X=1.576 $Y=0.4615 $X2=1.576 $Y2=0.4695
r33 18 19 14.6259 $w=2e-08 $l=4.3e-08 $layer=<ENCRYPTED_LAYER_23>
+ $thickness=5.6e-08 $X=1.576 $Y=0.4185 $X2=1.576 $Y2=0.4615
r34 18 9 18.7076 $w=2e-08 $l=5.5e-08 $layer=<ENCRYPTED_LAYER_23>
+ $thickness=5.6e-08 $X=1.576 $Y=0.4185 $X2=1.576 $Y2=0.3635
r35 3 10 1e-05 $l=1.45e-08 $X=1.8065 $Y=0.5535 $X2=1.821 $Y2=0.5535
.ends

.subckt PM_NEURON%XI1/XI1/XI3/XOR VSS 27 31 42 46 59 64 68 16 17 4 20 3 22 23
+ 18 5 12 1 25 26 24 14 15 13 19 21
c1 1 VSS 0.00807096f $X=1.954 $Y=0.486
c2 3 VSS 0.00800315f $X=1.549 $Y=0.4185
c3 4 VSS 0.00752042f $X=1.549 $Y=0.5535
c4 5 VSS 0.00518014f $X=1.711 $Y=0.405
c5 12 VSS 0.0852647f $X=1.954 $Y=0.3635
c6 13 VSS 0.0898727f $X=2.008 $Y=0.486
c7 14 VSS 0.038985f $X=1.551 $Y=0.5535
c8 15 VSS 0.039609f $X=1.551 $Y=0.4185
c9 16 VSS 0.0379087f $X=1.6965 $Y=0.4185
c10 17 VSS 0.00211163f $X=1.522 $Y=0.387
c11 18 VSS 0.00586594f $X=1.522 $Y=0.585
c12 19 VSS 0.00223538f $X=1.927 $Y=0.387
c13 20 VSS 0.00103515f $X=1.927 $Y=0.423
c14 21 VSS 0.000850197f $X=1.981 $Y=0.423
c15 22 VSS 0.00336131f $X=1.522 $Y=0.405
c16 23 VSS 0.0220782f $X=1.9175 $Y=0.387
c17 24 VSS 0.000933957f $X=1.927 $Y=0.405
c18 25 VSS 0.00120505f $X=1.9695 $Y=0.423
c19 26 VSS 0.00281601f $X=1.981 $Y=0.4675
r1 68 67 0.0308642 $w=8.1e-08 $l=2.5e-09 $layer=<ENCRYPTED_LAYER_48>
+ $thickness=1e-09 $X=1.5663 $Y=0.5535 $X2=1.5635 $Y2=0.5535
r2 14 67 0.154321 $w=8.1e-08 $l=1.25e-08 $layer=<ENCRYPTED_LAYER_48>
+ $thickness=1e-09 $X=1.551 $Y=0.5535 $X2=1.5635 $Y2=0.5535
r3 4 66 19.3796 $w=1.8e-08 $l=1.8e-08 $layer=<ENCRYPTED_LAYER_7> $X=1.549
+ $Y=0.5535 $X2=1.549 $Y2=0.585
r4 65 66 3.14806 $w=1.8e-08 $l=1.35e-08 $layer=M1 $thickness=3.6e-08 $X=1.5355
+ $Y=0.585 $X2=1.549 $Y2=0.585
r5 18 62 3.71668 $w=1.8e-08 $l=2.1e-08 $layer=M1 $thickness=3.6e-08 $X=1.522
+ $Y=0.585 $X2=1.522 $Y2=0.564
r6 18 65 1.96775 $w=1.8e-08 $l=1.35e-08 $layer=M1 $thickness=3.6e-08 $X=1.522
+ $Y=0.585 $X2=1.5355 $Y2=0.585
r7 64 63 0.0308642 $w=8.1e-08 $l=2.5e-09 $layer=<ENCRYPTED_LAYER_49>
+ $thickness=1e-09 $X=1.5663 $Y=0.4185 $X2=1.5635 $Y2=0.4185
r8 15 63 0.154321 $w=8.1e-08 $l=1.25e-08 $layer=<ENCRYPTED_LAYER_49>
+ $thickness=1e-09 $X=1.551 $Y=0.4185 $X2=1.5635 $Y2=0.4185
r9 61 62 8.86121 $w=1.8e-08 $l=3.8e-08 $layer=M1 $thickness=3.6e-08 $X=1.522
+ $Y=0.526 $X2=1.522 $Y2=0.564
r10 60 61 16.0901 $w=1.8e-08 $l=6.9e-08 $layer=M1 $thickness=3.6e-08 $X=1.522
+ $Y=0.457 $X2=1.522 $Y2=0.526
r11 22 60 12.1259 $w=1.8e-08 $l=5.2e-08 $layer=M1 $thickness=3.6e-08 $X=1.522
+ $Y=0.405 $X2=1.522 $Y2=0.457
r12 16 5 0.154321 $w=8.1e-08 $l=1.25e-08 $layer=<ENCRYPTED_LAYER_49>
+ $thickness=1e-09 $X=1.6965 $Y=0.4185 $X2=1.711 $Y2=0.405
r13 59 16 0.0308642 $w=8.1e-08 $l=2.5e-09 $layer=<ENCRYPTED_LAYER_49>
+ $thickness=1e-09 $X=1.6936 $Y=0.4185 $X2=1.6965 $Y2=0.4185
r14 3 55 19.3796 $w=1.8e-08 $l=1.8e-08 $layer=<ENCRYPTED_LAYER_7> $X=1.549
+ $Y=0.4185 $X2=1.549 $Y2=0.387
r15 17 54 1.49895 $w=1.8e-08 $l=1.35e-08 $layer=M1 $thickness=3.6e-08 $X=1.522
+ $Y=0.387 $X2=1.5355 $Y2=0.387
r16 17 22 2.5483 $w=1.8e-08 $l=1.8e-08 $layer=M1 $thickness=3.6e-08 $X=1.522
+ $Y=0.387 $X2=1.522 $Y2=0.405
r17 5 51 19.3796 $w=1.8e-08 $l=1.8e-08 $layer=<ENCRYPTED_LAYER_7> $X=1.711
+ $Y=0.405 $X2=1.711 $Y2=0.387
r18 54 55 3.14806 $w=1.8e-08 $l=1.35e-08 $layer=M1 $thickness=3.6e-08 $X=1.5355
+ $Y=0.387 $X2=1.549 $Y2=0.387
r19 53 55 3.14806 $w=1.8e-08 $l=1.35e-08 $layer=M1 $thickness=3.6e-08 $X=1.5625
+ $Y=0.387 $X2=1.549 $Y2=0.387
r20 51 52 21.5701 $w=1.8e-08 $l=9.25e-08 $layer=M1 $thickness=3.6e-08 $X=1.711
+ $Y=0.387 $X2=1.8035 $Y2=0.387
r21 50 51 17.839 $w=1.8e-08 $l=7.65e-08 $layer=M1 $thickness=3.6e-08 $X=1.6345
+ $Y=0.387 $X2=1.711 $Y2=0.387
r22 50 53 16.7897 $w=1.8e-08 $l=7.2e-08 $layer=M1 $thickness=3.6e-08 $X=1.6345
+ $Y=0.387 $X2=1.5625 $Y2=0.387
r23 49 52 22.9692 $w=1.8e-08 $l=9.85e-08 $layer=M1 $thickness=3.6e-08 $X=1.902
+ $Y=0.387 $X2=1.8035 $Y2=0.387
r24 23 49 3.61444 $w=1.8e-08 $l=1.55e-08 $layer=M1 $thickness=3.6e-08 $X=1.9175
+ $Y=0.387 $X2=1.902 $Y2=0.387
r25 19 24 2.5483 $w=1.8e-08 $l=1.8e-08 $layer=M1 $thickness=3.6e-08 $X=1.927
+ $Y=0.387 $X2=1.927 $Y2=0.405
r26 19 23 0.56619 $w=1.8e-08 $l=9.5e-09 $layer=M1 $thickness=3.6e-08 $X=1.927
+ $Y=0.387 $X2=1.9175 $Y2=0.387
r27 20 48 4.06404 $w=1.8e-08 $l=2.45e-08 $layer=M1 $thickness=3.6e-08 $X=1.927
+ $Y=0.423 $X2=1.9515 $Y2=0.423
r28 20 24 2.5483 $w=1.8e-08 $l=1.8e-08 $layer=M1 $thickness=3.6e-08 $X=1.927
+ $Y=0.423 $X2=1.927 $Y2=0.405
r29 25 48 4.19742 $w=1.8e-08 $l=1.8e-08 $layer=M1 $thickness=3.6e-08 $X=1.9695
+ $Y=0.423 $X2=1.9515 $Y2=0.423
r30 21 39 3.48106 $w=1.8e-08 $l=2.2e-08 $layer=M1 $thickness=3.6e-08 $X=1.981
+ $Y=0.423 $X2=1.981 $Y2=0.445
r31 21 25 1.03257 $w=1.8e-08 $l=1.15e-08 $layer=M1 $thickness=3.6e-08 $X=1.981
+ $Y=0.423 $X2=1.9695 $Y2=0.423
r32 46 45 14.6259 $w=2e-08 $l=4.3e-08 $layer=<ENCRYPTED_LAYER_23>
+ $thickness=5.6e-08 $X=2.008 $Y=0.5535 $X2=2.008 $Y2=0.5105
r33 44 45 2.7211 $w=2e-08 $l=8e-09 $layer=<ENCRYPTED_LAYER_23>
+ $thickness=5.6e-08 $X=2.008 $Y=0.5025 $X2=2.008 $Y2=0.5105
r34 42 43 14.6259 $w=2e-08 $l=4.3e-08 $layer=<ENCRYPTED_LAYER_23>
+ $thickness=5.6e-08 $X=2.008 $Y=0.4185 $X2=2.008 $Y2=0.4615
r35 40 43 2.7211 $w=2e-08 $l=8e-09 $layer=<ENCRYPTED_LAYER_23>
+ $thickness=5.6e-08 $X=2.008 $Y=0.4695 $X2=2.008 $Y2=0.4615
r36 13 35 6.54019 $w=2.09524e-08 $layer=<ENCRYPTED_LAYER_23>
+ $thickness=5.21905e-08 $X=2.008 $Y=0.486 $X2=2.008 $Y2=0.486
r37 13 40 5.79936 $w=2e-08 $l=1.65e-08 $layer=<ENCRYPTED_LAYER_23>
+ $thickness=5.6e-08 $X=2.008 $Y=0.486 $X2=2.008 $Y2=0.4695
r38 13 44 5.79936 $w=2e-08 $l=1.65e-08 $layer=<ENCRYPTED_LAYER_23>
+ $thickness=5.6e-08 $X=2.008 $Y=0.486 $X2=2.008 $Y2=0.5025
r39 26 37 4.31401 $w=1.8e-08 $l=1.85e-08 $layer=M1 $thickness=3.6e-08 $X=1.981
+ $Y=0.4675 $X2=1.981 $Y2=0.486
r40 26 39 5.24677 $w=1.8e-08 $l=2.25e-08 $layer=M1 $thickness=3.6e-08 $X=1.981
+ $Y=0.4675 $X2=1.981 $Y2=0.445
r41 34 35 12.6539 $w=2.2e-08 $l=2.7e-08 $layer=LIG $thickness=4.8e-08 $X=1.981
+ $Y=0.486 $X2=2.008 $Y2=0.486
r42 34 37 19.3796 $w=1.8e-08 $l=1.8e-08 $layer=<ENCRYPTED_LAYER_4> $X=1.981
+ $Y=0.486 $X2=1.981 $Y2=0.486
r43 1 29 6.54019 $w=2.09524e-08 $layer=<ENCRYPTED_LAYER_23>
+ $thickness=5.21905e-08 $X=1.954 $Y=0.486 $X2=1.954 $Y2=0.486
r44 1 34 12.6539 $w=2.2e-08 $l=2.7e-08 $layer=LIG $thickness=4.8e-08 $X=1.954